5359268
  -OEChem-02142402072D

  1  0  0     0  0  0  0  0  0999 V2000
    2.0000    0.0000    0.0000 Al  0  0  0  0  0 15  0  0  0  0  0  0
M  END
> <PUBCHEM_COMPOUND_CID>
5359268

> <PUBCHEM_COMPOUND_CANONICALIZED>
1

> <PUBCHEM_CACTVS_COMPLEXITY>
0

> <PUBCHEM_CACTVS_HBOND_ACCEPTOR>
0

> <PUBCHEM_CACTVS_HBOND_DONOR>
0

> <PUBCHEM_CACTVS_ROTATABLE_BOND>
0

> <PUBCHEM_CACTVS_SUBSKEYS>
AAADcQAAAAAAABAAAAAAAAAAAAAAAAAAAAAAAAAAAAAAAAAAAAAAAAAAAAAAAAAAAAAAAAAAAAAAAAAAAAAAAAAAAAAAAAAAAAAAAAAAAAAAAAAAAAAAAAAAAAAAAAAAAAAAAAAAAAAAAAAAAAAAAAAAAA==

> <PUBCHEM_IUPAC_OPENEYE_NAME>
aluminum

> <PUBCHEM_IUPAC_CAS_NAME>
aluminum

> <PUBCHEM_IUPAC_NAME_MARKUP>
aluminum

> <PUBCHEM_IUPAC_NAME>
aluminum

> <PUBCHEM_IUPAC_SYSTEMATIC_NAME>
aluminum

> <PUBCHEM_IUPAC_TRADITIONAL_NAME>
aluminum

> <PUBCHEM_IUPAC_INCHI>
InChI=1S/Al

> <PUBCHEM_IUPAC_INCHIKEY>
XAGFODPZIPBFFR-UHFFFAOYSA-N

> <PUBCHEM_EXACT_MASS>
26.9815384

> <PUBCHEM_MOLECULAR_FORMULA>
Al

> <PUBCHEM_MOLECULAR_WEIGHT>
26.981538

> <PUBCHEM_OPENEYE_CAN_SMILES>
[Al]

> <PUBCHEM_OPENEYE_ISO_SMILES>
[Al]

> <PUBCHEM_CACTVS_TPSA>
0

> <PUBCHEM_MONOISOTOPIC_WEIGHT>
26.9815384

> <PUBCHEM_TOTAL_CHARGE>
0

> <PUBCHEM_HEAVY_ATOM_COUNT>
1

> <PUBCHEM_ATOM_DEF_STEREO_COUNT>
0

> <PUBCHEM_ATOM_UDEF_STEREO_COUNT>
0

> <PUBCHEM_BOND_DEF_STEREO_COUNT>
0

> <PUBCHEM_BOND_UDEF_STEREO_COUNT>
0

> <PUBCHEM_ISOTOPIC_ATOM_COUNT>
0

> <PUBCHEM_COMPONENT_COUNT>
1

> <PUBCHEM_CACTVS_TAUTO_COUNT>
-1

> <PUBCHEM_COORDINATE_TYPE>
1
5
255

$$$$
