37768
  -OEChem-02142402172D

 83 85  0     1  0  0  0  0  0999 V2000
    9.8671    0.0875    0.0000 O   0  0  0  0  0  0  0  0  0  0  0  0
    6.8671   -1.6446    0.0000 O   0  0  0  0  0  0  0  0  0  0  0  0
    8.8671   -1.6446    0.0000 O   0  0  0  0  0  0  0  0  0  0  0  0
    9.8671   -1.6446    0.0000 O   0  0  0  0  0  0  0  0  0  0  0  0
    5.1350   -1.6446    0.0000 O   0  0  0  0  0  0  0  0  0  0  0  0
   11.8671    0.0875    0.0000 O   0  0  0  0  0  0  0  0  0  0  0  0
    6.8671   -3.6446    0.0000 O   0  0  0  0  0  0  0  0  0  0  0  0
   11.8671   -3.3766    0.0000 O   0  0  0  0  0  0  0  0  0  0  0  0
    5.1350   -4.6446    0.0000 O   0  0  0  0  0  0  0  0  0  0  0  0
    3.4030   -3.6446    0.0000 O   0  0  0  0  0  0  0  0  0  0  0  0
    8.8671    3.5516    0.0000 O   0  0  0  0  0  0  0  0  0  0  0  0
    8.8671   -3.3766    0.0000 O   0  0  0  0  0  0  0  0  0  0  0  0
    6.8671    1.8195    0.0000 O   0  0  0  0  0  0  0  0  0  0  0  0
    8.8671    1.8195    0.0000 N   0  0  0  0  0  0  0  0  0  0  0  0
    5.8671    0.0875    0.0000 N   0  0  0  0  0  0  0  0  0  0  0  0
   12.8671   -1.6446    0.0000 N   0  0  0  0  0  0  0  0  0  0  0  0
    2.5369   -2.1446    0.0000 N   0  0  0  0  0  0  0  0  0  0  0  0
    5.3671    4.4176    0.0000 N   0  0  0  0  0  0  0  0  0  0  0  0
    8.8671    0.0875    0.0000 C   0  0  1  0  0  0  0  0  0  0  0  0
    7.3671   -0.7785    0.0000 C   0  0  1  0  0  0  0  0  0  0  0  0
    8.3671    0.9535    0.0000 C   0  0  1  0  0  0  0  0  0  0  0  0
    8.3671   -0.7785    0.0000 C   0  0  2  0  0  0  0  0  0  0  0  0
    6.8671    0.0875    0.0000 C   0  0  2  0  0  0  0  0  0  0  0  0
    7.3671    0.9535    0.0000 C   0  0  0  0  0  0  0  0  0  0  0  0
   10.3671   -0.7785    0.0000 C   0  0  1  0  0  0  0  0  0  0  0  0
    6.0010   -2.1446    0.0000 C   0  0  1  0  0  0  0  0  0  0  0  0
   11.3671   -0.7785    0.0000 C   0  0  1  0  0  0  0  0  0  0  0  0
   11.8671   -1.6446    0.0000 C   0  0  2  0  0  0  0  0  0  0  0  0
    6.0010   -3.1446    0.0000 C   0  0  1  0  0  0  0  0  0  0  0  0
   11.3671   -2.5106    0.0000 C   0  0  1  0  0  0  0  0  0  0  0  0
    5.1350   -3.6446    0.0000 C   0  0  2  0  0  0  0  0  0  0  0  0
   10.3671   -2.5106    0.0000 C   0  0  1  0  0  0  0  0  0  0  0  0
    4.2690   -3.1446    0.0000 C   0  0  1  0  0  0  0  0  0  0  0  0
    4.2690   -2.1446    0.0000 C   0  0  1  0  0  0  0  0  0  0  0  0
    8.3671    2.6856    0.0000 C   0  0  0  0  0  0  0  0  0  0  0  0
    9.8671   -3.3766    0.0000 C   0  0  0  0  0  0  0  0  0  0  0  0
    3.4030   -1.6446    0.0000 C   0  0  0  0  0  0  0  0  0  0  0  0
    7.3671    2.6856    0.0000 C   0  0  2  0  0  0  0  0  0  0  0  0
    6.8671    3.5516    0.0000 C   0  0  0  0  0  0  0  0  0  0  0  0
    5.8671    3.5516    0.0000 C   0  0  0  0  0  0  0  0  0  0  0  0
    9.1771    0.6244    0.0000 H   0  0  0  0  0  0  0  0  0  0  0  0
    7.6771   -1.3155    0.0000 H   0  0  0  0  0  0  0  0  0  0  0  0
    8.0571    1.4905    0.0000 H   0  0  0  0  0  0  0  0  0  0  0  0
    8.9871   -0.7785    0.0000 H   0  0  0  0  0  0  0  0  0  0  0  0
    6.5571   -0.4494    0.0000 H   0  0  0  0  0  0  0  0  0  0  0  0
    7.4747    1.5641    0.0000 H   0  0  0  0  0  0  0  0  0  0  0  0
    6.7844    1.1656    0.0000 H   0  0  0  0  0  0  0  0  0  0  0  0
    9.7471   -0.7785    0.0000 H   0  0  0  0  0  0  0  0  0  0  0  0
    6.0010   -1.5246    0.0000 H   0  0  0  0  0  0  0  0  0  0  0  0
    9.4871    1.8195    0.0000 H   0  0  0  0  0  0  0  0  0  0  0  0
   11.9871   -0.7785    0.0000 H   0  0  0  0  0  0  0  0  0  0  0  0
   12.1771   -2.1815    0.0000 H   0  0  0  0  0  0  0  0  0  0  0  0
    6.0010   -3.7646    0.0000 H   0  0  0  0  0  0  0  0  0  0  0  0
    5.5571    0.6244    0.0000 H   0  0  0  0  0  0  0  0  0  0  0  0
    5.5571   -0.4494    0.0000 H   0  0  0  0  0  0  0  0  0  0  0  0
   11.0571   -3.0475    0.0000 H   0  0  0  0  0  0  0  0  0  0  0  0
    4.5981   -3.9546    0.0000 H   0  0  0  0  0  0  0  0  0  0  0  0
    9.7471   -2.5106    0.0000 H   0  0  0  0  0  0  0  0  0  0  0  0
    8.5571   -2.1815    0.0000 H   0  0  0  0  0  0  0  0  0  0  0  0
    4.2690   -3.7646    0.0000 H   0  0  0  0  0  0  0  0  0  0  0  0
    4.2690   -1.5246    0.0000 H   0  0  0  0  0  0  0  0  0  0  0  0
    9.7594   -3.9872    0.0000 H   0  0  0  0  0  0  0  0  0  0  0  0
   10.4497   -3.5887    0.0000 H   0  0  0  0  0  0  0  0  0  0  0  0
    3.8015   -1.1696    0.0000 H   0  0  0  0  0  0  0  0  0  0  0  0
    3.0044   -1.1696    0.0000 H   0  0  0  0  0  0  0  0  0  0  0  0
   13.1771   -2.1815    0.0000 H   0  0  0  0  0  0  0  0  0  0  0  0
   13.1771   -1.1076    0.0000 H   0  0  0  0  0  0  0  0  0  0  0  0
    7.6771    2.1486    0.0000 H   0  0  0  0  0  0  0  0  0  0  0  0
   12.4871    0.0875    0.0000 H   0  0  0  0  0  0  0  0  0  0  0  0
    6.8671   -4.2646    0.0000 H   0  0  0  0  0  0  0  0  0  0  0  0
   11.5571   -3.9135    0.0000 H   0  0  0  0  0  0  0  0  0  0  0  0
    4.5981   -4.9546    0.0000 H   0  0  0  0  0  0  0  0  0  0  0  0
    3.4030   -4.2646    0.0000 H   0  0  0  0  0  0  0  0  0  0  0  0
    7.4497    3.7636    0.0000 H   0  0  0  0  0  0  0  0  0  0  0  0
    6.7594    4.1622    0.0000 H   0  0  0  0  0  0  0  0  0  0  0  0
    2.0000   -1.8346    0.0000 H   0  0  0  0  0  0  0  0  0  0  0  0
    2.5369   -2.7646    0.0000 H   0  0  0  0  0  0  0  0  0  0  0  0
    8.5571   -3.9135    0.0000 H   0  0  0  0  0  0  0  0  0  0  0  0
    6.2471    1.8195    0.0000 H   0  0  0  0  0  0  0  0  0  0  0  0
    5.2844    3.3395    0.0000 H   0  0  0  0  0  0  0  0  0  0  0  0
    5.9747    2.9410    0.0000 H   0  0  0  0  0  0  0  0  0  0  0  0
    4.7471    4.4176    0.0000 H   0  0  0  0  0  0  0  0  0  0  0  0
    5.6771    4.9546    0.0000 H   0  0  0  0  0  0  0  0  0  0  0  0
 19  1  1  6  0  0  0
 25  1  1  6  0  0  0
 20  2  1  6  0  0  0
 26  2  1  6  0  0  0
 22  3  1  1  0  0  0
  3 59  1  0  0  0  0
  4 25  1  0  0  0  0
  4 32  1  0  0  0  0
  5 26  1  0  0  0  0
  5 34  1  0  0  0  0
 27  6  1  6  0  0  0
  6 69  1  0  0  0  0
 29  7  1  6  0  0  0
  7 70  1  0  0  0  0
 30  8  1  6  0  0  0
  8 71  1  0  0  0  0
 31  9  1  1  0  0  0
  9 72  1  0  0  0  0
 33 10  1  6  0  0  0
 10 73  1  0  0  0  0
 11 35  2  0  0  0  0
 12 36  1  0  0  0  0
 12 78  1  0  0  0  0
 38 13  1  1  0  0  0
 13 79  1  0  0  0  0
 21 14  1  1  0  0  0
 14 35  1  0  0  0  0
 14 50  1  0  0  0  0
 23 15  1  1  0  0  0
 15 54  1  0  0  0  0
 15 55  1  0  0  0  0
 28 16  1  1  0  0  0
 16 66  1  0  0  0  0
 16 67  1  0  0  0  0
 17 37  1  0  0  0  0
 17 76  1  0  0  0  0
 17 77  1  0  0  0  0
 18 40  1  0  0  0  0
 18 82  1  0  0  0  0
 18 83  1  0  0  0  0
 19 21  1  0  0  0  0
 19 22  1  0  0  0  0
 19 41  1  0  0  0  0
 20 22  1  0  0  0  0
 20 23  1  0  0  0  0
 20 42  1  0  0  0  0
 21 24  1  0  0  0  0
 21 43  1  0  0  0  0
 22 44  1  0  0  0  0
 23 24  1  0  0  0  0
 23 45  1  0  0  0  0
 24 46  1  0  0  0  0
 24 47  1  0  0  0  0
 25 27  1  0  0  0  0
 25 48  1  0  0  0  0
 26 29  1  0  0  0  0
 26 49  1  0  0  0  0
 27 28  1  0  0  0  0
 27 51  1  0  0  0  0
 28 30  1  0  0  0  0
 28 52  1  0  0  0  0
 29 31  1  0  0  0  0
 29 53  1  0  0  0  0
 30 32  1  0  0  0  0
 30 56  1  0  0  0  0
 31 33  1  0  0  0  0
 31 57  1  0  0  0  0
 32 36  1  1  0  0  0
 32 58  1  0  0  0  0
 33 34  1  0  0  0  0
 33 60  1  0  0  0  0
 34 37  1  1  0  0  0
 34 61  1  0  0  0  0
 35 38  1  0  0  0  0
 36 62  1  0  0  0  0
 36 63  1  0  0  0  0
 37 64  1  0  0  0  0
 37 65  1  0  0  0  0
 38 39  1  0  0  0  0
 38 68  1  0  0  0  0
 39 40  1  0  0  0  0
 39 74  1  0  0  0  0
 39 75  1  0  0  0  0
 40 80  1  0  0  0  0
 40 81  1  0  0  0  0
M  END
> <PUBCHEM_COMPOUND_CID>
37768

> <PUBCHEM_COMPOUND_CANONICALIZED>
1

> <PUBCHEM_CACTVS_COMPLEXITY>
819

> <PUBCHEM_CACTVS_HBOND_ACCEPTOR>
17

> <PUBCHEM_CACTVS_HBOND_DONOR>
13

> <PUBCHEM_CACTVS_ROTATABLE_BOND>
10

> <PUBCHEM_CACTVS_SUBSKEYS>
AAADcfB7vAAAAAAAAAAAAAAAAAAAAAAAAAA0SIAAAAAAAAAAAAAAHgAQCAAACDzxgAcACALABgAIAAEQEAIAAAAAAAAAAIFIAAATEBIAwAAnQAAHFgCXAAH0cA8AAAAAAAAAAAAAgAAUCACgAAAAAAAAAA==

> <PUBCHEM_IUPAC_OPENEYE_NAME>
(2S)-4-amino-N-[(1R,2S,3S,4R,5S)-5-amino-2-[(2S,3R,4S,5S,6R)-4-amino-3,5-dihydroxy-6-(hydroxymethyl)tetrahydropyran-2-yl]oxy-4-[(2R,3R,4S,5S,6R)-6-(aminomethyl)-3,4,5-trihydroxy-tetrahydropyran-2-yl]oxy-3-hydroxy-cyclohexyl]-2-hydroxy-butanamide

> <PUBCHEM_IUPAC_CAS_NAME>
(2S)-4-amino-N-[(1R,2S,3S,4R,5S)-5-amino-2-[[(2S,3R,4S,5S,6R)-4-amino-3,5-dihydroxy-6-(hydroxymethyl)-2-oxanyl]oxy]-4-[[(2R,3R,4S,5S,6R)-6-(aminomethyl)-3,4,5-trihydroxy-2-oxanyl]oxy]-3-hydroxycyclohexyl]-2-hydroxybutanamide

> <PUBCHEM_IUPAC_NAME_MARKUP>
(2<I>S</I>)-4-amino-<I>N</I>-[(1<I>R</I>,2<I>S</I>,3<I>S</I>,4<I>R</I>,5<I>S</I>)-5-amino-2-[(2<I>S</I>,3<I>R</I>,4<I>S</I>,5<I>S</I>,6<I>R</I>)-4-amino-3,5-dihydroxy-6-(hydroxymethyl)oxan-2-yl]oxy-4-[(2<I>R</I>,3<I>R</I>,4<I>S</I>,5<I>S</I>,6<I>R</I>)-6-(aminomethyl)-3,4,5-trihydroxyoxan-2-yl]oxy-3-hydroxycyclohexyl]-2-hydroxybutanamide

> <PUBCHEM_IUPAC_NAME>
(2S)-4-amino-N-[(1R,2S,3S,4R,5S)-5-amino-2-[(2S,3R,4S,5S,6R)-4-amino-3,5-dihydroxy-6-(hydroxymethyl)oxan-2-yl]oxy-4-[(2R,3R,4S,5S,6R)-6-(aminomethyl)-3,4,5-trihydroxyoxan-2-yl]oxy-3-hydroxycyclohexyl]-2-hydroxybutanamide

> <PUBCHEM_IUPAC_SYSTEMATIC_NAME>
(2S)-N-[(1R,2S,3S,4R,5S)-4-[(2R,3R,4S,5S,6R)-6-(aminomethyl)-3,4,5-tris(oxidanyl)oxan-2-yl]oxy-5-azanyl-2-[(2S,3R,4S,5S,6R)-4-azanyl-6-(hydroxymethyl)-3,5-bis(oxidanyl)oxan-2-yl]oxy-3-oxidanyl-cyclohexyl]-4-azanyl-2-oxidanyl-butanamide

> <PUBCHEM_IUPAC_TRADITIONAL_NAME>
(2S)-4-amino-N-[(1R,2S,3S,4R,5S)-5-amino-2-[(2S,3R,4S,5S,6R)-4-amino-3,5-dihydroxy-6-methylol-tetrahydropyran-2-yl]oxy-4-[(2R,3R,4S,5S,6R)-6-(aminomethyl)-3,4,5-trihydroxy-tetrahydropyran-2-yl]oxy-3-hydroxy-cyclohexyl]-2-hydroxy-butyramide

> <PUBCHEM_IUPAC_INCHI>
InChI=1S/C22H43N5O13/c23-2-1-8(29)20(36)27-7-3-6(25)18(39-22-16(34)15(33)13(31)9(4-24)37-22)17(35)19(7)40-21-14(32)11(26)12(30)10(5-28)38-21/h6-19,21-22,28-35H,1-5,23-26H2,(H,27,36)/t6-,7+,8-,9+,10+,11-,12+,13+,14+,15-,16+,17-,18+,19-,21+,22+/m0/s1

> <PUBCHEM_IUPAC_INCHIKEY>
LKCWBDHBTVXHDL-RMDFUYIESA-N

> <PUBCHEM_XLOGP3_AA>
-7.9

> <PUBCHEM_EXACT_MASS>
585.28573644

> <PUBCHEM_MOLECULAR_FORMULA>
C22H43N5O13

> <PUBCHEM_MOLECULAR_WEIGHT>
585.6

> <PUBCHEM_OPENEYE_CAN_SMILES>
C1C(C(C(C(C1NC(=O)C(CCN)O)OC2C(C(C(C(O2)CO)O)N)O)O)OC3C(C(C(C(O3)CN)O)O)O)N

> <PUBCHEM_OPENEYE_ISO_SMILES>
C1[C@@H]([C@H]([C@@H]([C@H]([C@@H]1NC(=O)[C@H](CCN)O)O[C@@H]2[C@@H]([C@H]([C@@H]([C@H](O2)CO)O)N)O)O)O[C@@H]3[C@@H]([C@H]([C@@H]([C@H](O3)CN)O)O)O)N

> <PUBCHEM_CACTVS_TPSA>
332

> <PUBCHEM_MONOISOTOPIC_WEIGHT>
585.28573644

> <PUBCHEM_TOTAL_CHARGE>
0

> <PUBCHEM_HEAVY_ATOM_COUNT>
40

> <PUBCHEM_ATOM_DEF_STEREO_COUNT>
16

> <PUBCHEM_ATOM_UDEF_STEREO_COUNT>
0

> <PUBCHEM_BOND_DEF_STEREO_COUNT>
0

> <PUBCHEM_BOND_UDEF_STEREO_COUNT>
0

> <PUBCHEM_ISOTOPIC_ATOM_COUNT>
0

> <PUBCHEM_COMPONENT_COUNT>
1

> <PUBCHEM_CACTVS_TAUTO_COUNT>
-1

> <PUBCHEM_COORDINATE_TYPE>
1
5
255

> <PUBCHEM_BONDANNOTATIONS>
19  1  6
25  1  6
33  10  6
38  13  5
21  14  5
23  15  5
28  16  5
20  2  6
26  2  6
22  3  5
32  36  5
34  37  5
27  6  6
29  7  6
30  8  6
31  9  5

$$$$
