2442
  -OEChem-02142402262D

 38 39  0     1  0  0  0  0  0999 V2000
    8.9282    0.7500    0.0000 Br  0  0  0  0  0  0  0  0  0  0  0  0
    7.1962   -2.2500    0.0000 Br  0  0  0  0  0  0  0  0  0  0  0  0
    4.5981    0.2500    0.0000 N   0  0  3  0  0  0  0  0  0  0  0  0
    7.1962    1.7500    0.0000 N   0  0  0  0  0  0  0  0  0  0  0  0
    3.7320    0.7500    0.0000 C   0  0  0  0  0  0  0  0  0  0  0  0
    3.7320    1.7500    0.0000 C   0  0  0  0  0  0  0  0  0  0  0  0
    2.8660    0.2500    0.0000 C   0  0  0  0  0  0  0  0  0  0  0  0
    2.8660    2.2500    0.0000 C   0  0  0  0  0  0  0  0  0  0  0  0
    2.0000    0.7500    0.0000 C   0  0  0  0  0  0  0  0  0  0  0  0
    2.0000    1.7500    0.0000 C   0  0  0  0  0  0  0  0  0  0  0  0
    5.4641    0.7500    0.0000 C   0  0  0  0  0  0  0  0  0  0  0  0
    4.5981   -0.7500    0.0000 C   0  0  0  0  0  0  0  0  0  0  0  0
    6.3301    0.2500    0.0000 C   0  0  0  0  0  0  0  0  0  0  0  0
    7.1962    0.7500    0.0000 C   0  0  0  0  0  0  0  0  0  0  0  0
    6.3301   -0.7500    0.0000 C   0  0  0  0  0  0  0  0  0  0  0  0
    8.0622    0.2500    0.0000 C   0  0  0  0  0  0  0  0  0  0  0  0
    7.1962   -1.2500    0.0000 C   0  0  0  0  0  0  0  0  0  0  0  0
    8.0622   -0.7500    0.0000 C   0  0  0  0  0  0  0  0  0  0  0  0
    3.7320    0.1300    0.0000 H   0  0  0  0  0  0  0  0  0  0  0  0
    4.3426    1.6423    0.0000 H   0  0  0  0  0  0  0  0  0  0  0  0
    3.9441    2.3326    0.0000 H   0  0  0  0  0  0  0  0  0  0  0  0
    2.4675   -0.2249    0.0000 H   0  0  0  0  0  0  0  0  0  0  0  0
    3.2646   -0.2249    0.0000 H   0  0  0  0  0  0  0  0  0  0  0  0
    3.2646    2.7250    0.0000 H   0  0  0  0  0  0  0  0  0  0  0  0
    2.4675    2.7250    0.0000 H   0  0  0  0  0  0  0  0  0  0  0  0
    1.3894    0.8577    0.0000 H   0  0  0  0  0  0  0  0  0  0  0  0
    1.7880    0.1674    0.0000 H   0  0  0  0  0  0  0  0  0  0  0  0
    1.7880    2.3326    0.0000 H   0  0  0  0  0  0  0  0  0  0  0  0
    1.3894    1.6423    0.0000 H   0  0  0  0  0  0  0  0  0  0  0  0
    5.8626    1.2250    0.0000 H   0  0  0  0  0  0  0  0  0  0  0  0
    5.0656    1.2250    0.0000 H   0  0  0  0  0  0  0  0  0  0  0  0
    3.9781   -0.7500    0.0000 H   0  0  0  0  0  0  0  0  0  0  0  0
    4.5981   -1.3700    0.0000 H   0  0  0  0  0  0  0  0  0  0  0  0
    5.2181   -0.7500    0.0000 H   0  0  0  0  0  0  0  0  0  0  0  0
    5.7932   -1.0600    0.0000 H   0  0  0  0  0  0  0  0  0  0  0  0
    8.5991   -1.0600    0.0000 H   0  0  0  0  0  0  0  0  0  0  0  0
    7.7331    2.0600    0.0000 H   0  0  0  0  0  0  0  0  0  0  0  0
    6.6592    2.0600    0.0000 H   0  0  0  0  0  0  0  0  0  0  0  0
  1 16  1  0  0  0  0
  2 17  1  0  0  0  0
  3  5  1  0  0  0  0
  3 11  1  0  0  0  0
  3 12  1  0  0  0  0
  4 14  1  0  0  0  0
  4 37  1  0  0  0  0
  4 38  1  0  0  0  0
  5  6  1  0  0  0  0
  5  7  1  0  0  0  0
  5 19  1  0  0  0  0
  6  8  1  0  0  0  0
  6 20  1  0  0  0  0
  6 21  1  0  0  0  0
  7  9  1  0  0  0  0
  7 22  1  0  0  0  0
  7 23  1  0  0  0  0
  8 10  1  0  0  0  0
  8 24  1  0  0  0  0
  8 25  1  0  0  0  0
  9 10  1  0  0  0  0
  9 26  1  0  0  0  0
  9 27  1  0  0  0  0
 10 28  1  0  0  0  0
 10 29  1  0  0  0  0
 11 13  1  0  0  0  0
 11 30  1  0  0  0  0
 11 31  1  0  0  0  0
 12 32  1  0  0  0  0
 12 33  1  0  0  0  0
 12 34  1  0  0  0  0
 13 14  2  0  0  0  0
 13 15  1  0  0  0  0
 14 16  1  0  0  0  0
 15 17  2  0  0  0  0
 15 35  1  0  0  0  0
 16 18  2  0  0  0  0
 17 18  1  0  0  0  0
 18 36  1  0  0  0  0
M  END
> <PUBCHEM_COMPOUND_CID>
2442

> <PUBCHEM_COMPOUND_CANONICALIZED>
1

> <PUBCHEM_CACTVS_COMPLEXITY>
256

> <PUBCHEM_CACTVS_HBOND_ACCEPTOR>
2

> <PUBCHEM_CACTVS_HBOND_DONOR>
1

> <PUBCHEM_CACTVS_ROTATABLE_BOND>
3

> <PUBCHEM_CACTVS_SUBSKEYS>
AAADceBzAAAAGAAAAAAAAAAAAAAAAAAAAAAwYAAAAAAAAAABAAAAHABQAAABrCjBGAQywINAAACAAiRCQACCAAAgAAQAiAAIRKgIICKA0ZGEIAhggACIyhcQgAAOAAAgEAAiAAgAAEAgAEQAEAAAAAAAAA==

> <PUBCHEM_IUPAC_OPENEYE_NAME>
2,4-dibromo-6-[[cyclohexyl(methyl)amino]methyl]aniline

> <PUBCHEM_IUPAC_CAS_NAME>
2,4-dibromo-6-[[cyclohexyl(methyl)amino]methyl]aniline

> <PUBCHEM_IUPAC_NAME_MARKUP>
2,4-dibromo-6-[[cyclohexyl(methyl)amino]methyl]aniline

> <PUBCHEM_IUPAC_NAME>
2,4-dibromo-6-[[cyclohexyl(methyl)amino]methyl]aniline

> <PUBCHEM_IUPAC_SYSTEMATIC_NAME>
2,4-bis(bromanyl)-6-[[cyclohexyl(methyl)amino]methyl]aniline

> <PUBCHEM_IUPAC_TRADITIONAL_NAME>
(2-amino-3,5-dibromo-benzyl)-cyclohexyl-methyl-amine

> <PUBCHEM_IUPAC_INCHI>
InChI=1S/C14H20Br2N2/c1-18(12-5-3-2-4-6-12)9-10-7-11(15)8-13(16)14(10)17/h7-8,12H,2-6,9,17H2,1H3

> <PUBCHEM_IUPAC_INCHIKEY>
OJGDCBLYJGHCIH-UHFFFAOYSA-N

> <PUBCHEM_XLOGP3_AA>
4.3

> <PUBCHEM_EXACT_MASS>
375.99727

> <PUBCHEM_MOLECULAR_FORMULA>
C14H20Br2N2

> <PUBCHEM_MOLECULAR_WEIGHT>
376.13

> <PUBCHEM_OPENEYE_CAN_SMILES>
CN(CC1=C(C(=CC(=C1)Br)Br)N)C2CCCCC2

> <PUBCHEM_OPENEYE_ISO_SMILES>
CN(CC1=C(C(=CC(=C1)Br)Br)N)C2CCCCC2

> <PUBCHEM_CACTVS_TPSA>
29.3

> <PUBCHEM_MONOISOTOPIC_WEIGHT>
373.99932

> <PUBCHEM_TOTAL_CHARGE>
0

> <PUBCHEM_HEAVY_ATOM_COUNT>
18

> <PUBCHEM_ATOM_DEF_STEREO_COUNT>
0

> <PUBCHEM_ATOM_UDEF_STEREO_COUNT>
0

> <PUBCHEM_BOND_DEF_STEREO_COUNT>
0

> <PUBCHEM_BOND_UDEF_STEREO_COUNT>
0

> <PUBCHEM_ISOTOPIC_ATOM_COUNT>
0

> <PUBCHEM_COMPONENT_COUNT>
1

> <PUBCHEM_CACTVS_TAUTO_COUNT>
-1

> <PUBCHEM_COORDINATE_TYPE>
1
5
255

> <PUBCHEM_BONDANNOTATIONS>
13  14  8
13  15  8
14  16  8
15  17  8
16  18  8
17  18  8

$$$$
