5281004
  -OEChem-02142402112D

 65 69  0     1  0  0  0  0  0999 V2000
    9.0594   -0.5867    0.0000 O   0  0  0  0  0  0  0  0  0  0  0  0
    8.4073   -2.0478    0.0000 O   0  0  0  0  0  0  0  0  0  0  0  0
    6.4739    2.6871    0.0000 O   0  0  0  0  0  0  0  0  0  0  0  0
    8.7828    1.1017    0.0000 O   0  0  0  0  0  0  0  0  0  0  0  0
   10.6092    0.2866    0.0000 O   0  0  0  0  0  0  0  0  0  0  0  0
    2.0000    3.3314    0.0000 O   0  0  0  0  0  0  0  0  0  0  0  0
    7.3399    0.1871    0.0000 C   0  0  1  0  0  0  0  0  0  0  0  0
    6.4739   -0.3129    0.0000 C   0  0  2  0  0  0  0  0  0  0  0  0
    5.6079    0.1871    0.0000 C   0  0  1  0  0  0  0  0  0  0  0  0
    8.0770   -0.4800    0.0000 C   0  0  1  0  0  0  0  0  0  0  0  0
    5.6079    1.1871    0.0000 C   0  0  2  0  0  0  0  0  0  0  0  0
    6.6831   -1.2848    0.0000 C   0  0  0  0  0  0  0  0  0  0  0  0
    7.6718   -1.3878    0.0000 C   0  0  1  0  0  0  0  0  0  0  0  0
    7.3399    1.1871    0.0000 C   0  0  0  0  0  0  0  0  0  0  0  0
    6.4739    1.6871    0.0000 C   0  0  2  0  0  0  0  0  0  0  0  0
    4.7140    1.7217    0.0000 C   0  0  1  0  0  0  0  0  0  0  0  0
    4.7140   -0.3476    0.0000 C   0  0  0  0  0  0  0  0  0  0  0  0
    8.2060    0.6871    0.0000 C   0  0  0  0  0  0  0  0  0  0  0  0
    3.8079    0.1662    0.0000 C   0  0  0  0  0  0  0  0  0  0  0  0
    3.8079    1.2079    0.0000 C   0  0  0  0  0  0  0  0  0  0  0  0
    8.8865    0.1071    0.0000 C   0  0  0  0  0  0  0  0  0  0  0  0
    9.2632   -1.5537    0.0000 C   0  0  3  0  0  0  0  0  0  0  0  0
    5.5838    2.2150    0.0000 C   0  0  0  0  0  0  0  0  0  0  0  0
    4.7390    2.8064    0.0000 C   0  0  0  0  0  0  0  0  0  0  0  0
   10.1763   -1.9612    0.0000 C   0  0  0  0  0  0  0  0  0  0  0  0
    9.7997   -0.3005    0.0000 C   0  0  0  0  0  0  0  0  0  0  0  0
    2.8641    1.7431    0.0000 C   0  0  0  0  0  0  0  0  0  0  0  0
    3.8079    3.3633    0.0000 C   0  0  0  0  0  0  0  0  0  0  0  0
    2.8641    2.8281    0.0000 C   0  0  0  0  0  0  0  0  0  0  0  0
   10.2800   -2.9558    0.0000 C   0  0  0  0  0  0  0  0  0  0  0  0
   11.1932   -3.3633    0.0000 C   0  0  0  0  0  0  0  0  0  0  0  0
    5.7869   -0.8135    0.0000 H   0  0  0  0  0  0  0  0  0  0  0  0
    5.6144   -0.6629    0.0000 H   0  0  0  0  0  0  0  0  0  0  0  0
    6.3440    0.7621    0.0000 H   0  0  0  0  0  0  0  0  0  0  0  0
    6.0666   -1.3508    0.0000 H   0  0  0  0  0  0  0  0  0  0  0  0
    6.6840   -1.9048    0.0000 H   0  0  0  0  0  0  0  0  0  0  0  0
    7.3271   -2.1648    0.0000 H   0  0  0  0  0  0  0  0  0  0  0  0
    7.9505    1.0794    0.0000 H   0  0  0  0  0  0  0  0  0  0  0  0
    7.5520    1.7697    0.0000 H   0  0  0  0  0  0  0  0  0  0  0  0
    7.0108    1.9971    0.0000 H   0  0  0  0  0  0  0  0  0  0  0  0
    4.3203   -0.8266    0.0000 H   0  0  0  0  0  0  0  0  0  0  0  0
    5.1185   -0.8174    0.0000 H   0  0  0  0  0  0  0  0  0  0  0  0
    8.5160    0.1501    0.0000 H   0  0  0  0  0  0  0  0  0  0  0  0
    8.7429    0.9971    0.0000 H   0  0  0  0  0  0  0  0  0  0  0  0
    7.8960    1.2240    0.0000 H   0  0  0  0  0  0  0  0  0  0  0  0
    3.1970    0.2723    0.0000 H   0  0  0  0  0  0  0  0  0  0  0  0
    3.5988   -0.4175    0.0000 H   0  0  0  0  0  0  0  0  0  0  0  0
    9.3073   -2.4025    0.0000 H   0  0  0  0  0  0  0  0  0  0  0  0
    5.8896    1.6757    0.0000 H   0  0  0  0  0  0  0  0  0  0  0  0
    6.1231    2.5209    0.0000 H   0  0  0  0  0  0  0  0  0  0  0  0
    5.2780    2.7543    0.0000 H   0  0  0  0  0  0  0  0  0  0  0  0
    5.2819    3.1060    0.0000 H   0  0  0  0  0  0  0  0  0  0  0  0
    7.0108    2.9971    0.0000 H   0  0  0  0  0  0  0  0  0  0  0  0
   10.7948   -2.0050    0.0000 H   0  0  0  0  0  0  0  0  0  0  0  0
   10.3269   -1.3598    0.0000 H   0  0  0  0  0  0  0  0  0  0  0  0
    9.4525   -0.8142    0.0000 H   0  0  0  0  0  0  0  0  0  0  0  0
   10.2453   -0.7315    0.0000 H   0  0  0  0  0  0  0  0  0  0  0  0
    2.3284    1.4310    0.0000 H   0  0  0  0  0  0  0  0  0  0  0  0
    3.8150    3.9833    0.0000 H   0  0  0  0  0  0  0  0  0  0  0  0
    9.6616   -2.9120    0.0000 H   0  0  0  0  0  0  0  0  0  0  0  0
   10.1295   -3.5573    0.0000 H   0  0  0  0  0  0  0  0  0  0  0  0
   11.1754    0.0339    0.0000 H   0  0  0  0  0  0  0  0  0  0  0  0
   10.9405   -3.9295    0.0000 H   0  0  0  0  0  0  0  0  0  0  0  0
   11.7594   -3.6160    0.0000 H   0  0  0  0  0  0  0  0  0  0  0  0
   11.4459   -2.7972    0.0000 H   0  0  0  0  0  0  0  0  0  0  0  0
  1 10  1  0  0  0  0
  1 22  1  0  0  0  0
  2 13  1  0  0  0  0
  2 22  1  0  0  0  0
 15  3  1  1  0  0  0
  3 53  1  0  0  0  0
  4 21  2  0  0  0  0
  5 26  1  0  0  0  0
  5 62  1  0  0  0  0
  6 29  2  0  0  0  0
  7  8  1  0  0  0  0
  7 10  1  0  0  0  0
  7 14  1  0  0  0  0
  7 18  1  1  0  0  0
  8  9  1  0  0  0  0
  8 12  1  0  0  0  0
  8 32  1  6  0  0  0
  9 11  1  0  0  0  0
  9 17  1  0  0  0  0
  9 33  1  1  0  0  0
 10 13  1  0  0  0  0
 10 21  1  1  0  0  0
 11 15  1  0  0  0  0
 11 16  1  0  0  0  0
 11 34  1  6  0  0  0
 12 13  1  0  0  0  0
 12 35  1  0  0  0  0
 12 36  1  0  0  0  0
 13 37  1  1  0  0  0
 14 15  1  0  0  0  0
 14 38  1  0  0  0  0
 14 39  1  0  0  0  0
 15 40  1  0  0  0  0
 16 20  1  0  0  0  0
 16 23  1  1  0  0  0
 16 24  1  0  0  0  0
 17 19  1  0  0  0  0
 17 41  1  0  0  0  0
 17 42  1  0  0  0  0
 18 43  1  0  0  0  0
 18 44  1  0  0  0  0
 18 45  1  0  0  0  0
 19 20  1  0  0  0  0
 19 46  1  0  0  0  0
 19 47  1  0  0  0  0
 20 27  2  0  0  0  0
 21 26  1  0  0  0  0
 22 25  1  0  0  0  0
 22 48  1  0  0  0  0
 23 49  1  0  0  0  0
 23 50  1  0  0  0  0
 23 51  1  0  0  0  0
 24 28  2  0  0  0  0
 24 52  1  0  0  0  0
 25 30  1  0  0  0  0
 25 54  1  0  0  0  0
 25 55  1  0  0  0  0
 26 56  1  0  0  0  0
 26 57  1  0  0  0  0
 27 29  1  0  0  0  0
 27 58  1  0  0  0  0
 28 29  1  0  0  0  0
 28 59  1  0  0  0  0
 30 31  1  0  0  0  0
 30 60  1  0  0  0  0
 30 61  1  0  0  0  0
 31 63  1  0  0  0  0
 31 64  1  0  0  0  0
 31 65  1  0  0  0  0
M  END
> <PUBCHEM_COMPOUND_CID>
5281004

> <PUBCHEM_COMPOUND_CANONICALIZED>
1

> <PUBCHEM_CACTVS_COMPLEXITY>
862

> <PUBCHEM_CACTVS_HBOND_ACCEPTOR>
6

> <PUBCHEM_CACTVS_HBOND_DONOR>
2

> <PUBCHEM_CACTVS_ROTATABLE_BOND>
4

> <PUBCHEM_CACTVS_SUBSKEYS>
AAADcfB4OAAAAAAAAAAAAAAAAAAAAaIAAAAwYIAAAAASAGDAAAAAGgAACAAAD1SwgAMCCAAABgCIAqBSAAIAAAAgAAAICAFAAEgREBYAAQQiQAAFoAAOAYPI7PzPgAAAAAAAAADAAAYAADAAAYAADCAAAA==

> <PUBCHEM_IUPAC_OPENEYE_NAME>
(1S,2S,4R,8S,9S,11S,12S,13R)-11-hydroxy-8-(2-hydroxyacetyl)-9,13-dimethyl-6-propyl-5,7-dioxapentacyclo[10.8.0.02,9.04,8.013,18]icosa-14,17-dien-16-one

> <PUBCHEM_IUPAC_CAS_NAME>
(1S,2S,4R,8S,9S,11S,12S,13R)-11-hydroxy-8-(2-hydroxy-1-oxoethyl)-9,13-dimethyl-6-propyl-5,7-dioxapentacyclo[10.8.0.02,9.04,8.013,18]eicosa-14,17-dien-16-one

> <PUBCHEM_IUPAC_NAME_MARKUP>
(1<I>S</I>,2<I>S</I>,4<I>R</I>,8<I>S</I>,9<I>S</I>,11<I>S</I>,12<I>S</I>,13<I>R</I>)-11-hydroxy-8-(2-hydroxyacetyl)-9,13-dimethyl-6-propyl-5,7-dioxapentacyclo[10.8.0.0<SUP>2,9</SUP>.0<SUP>4,8</SUP>.0<SUP>13,18</SUP>]icosa-14,17-dien-16-one

> <PUBCHEM_IUPAC_NAME>
(1S,2S,4R,8S,9S,11S,12S,13R)-11-hydroxy-8-(2-hydroxyacetyl)-9,13-dimethyl-6-propyl-5,7-dioxapentacyclo[10.8.0.02,9.04,8.013,18]icosa-14,17-dien-16-one

> <PUBCHEM_IUPAC_SYSTEMATIC_NAME>
(1S,2S,4R,8S,9S,11S,12S,13R)-9,13-dimethyl-11-oxidanyl-8-(2-oxidanylethanoyl)-6-propyl-5,7-dioxapentacyclo[10.8.0.02,9.04,8.013,18]icosa-14,17-dien-16-one

> <PUBCHEM_IUPAC_TRADITIONAL_NAME>
(1S,2S,4R,8S,9S,11S,12S,13R)-8-glycoloyl-11-hydroxy-9,13-dimethyl-6-propyl-5,7-dioxapentacyclo[10.8.0.02,9.04,8.013,18]eicosa-14,17-dien-16-one

> <PUBCHEM_IUPAC_INCHI>
InChI=1S/C25H34O6/c1-4-5-21-30-20-11-17-16-7-6-14-10-15(27)8-9-23(14,2)22(16)18(28)12-24(17,3)25(20,31-21)19(29)13-26/h8-10,16-18,20-22,26,28H,4-7,11-13H2,1-3H3/t16-,17-,18-,20+,21?,22+,23-,24-,25+/m0/s1

> <PUBCHEM_IUPAC_INCHIKEY>
VOVIALXJUBGFJZ-KWVAZRHASA-N

> <PUBCHEM_XLOGP3_AA>
2.5

> <PUBCHEM_EXACT_MASS>
430.23553880

> <PUBCHEM_MOLECULAR_FORMULA>
C25H34O6

> <PUBCHEM_MOLECULAR_WEIGHT>
430.5

> <PUBCHEM_REFERENCE_STANDARDIZATION>
Bypass - this structure was created from CID 5281004

> <PUBCHEM_OPENEYE_CAN_SMILES>
CCCC1OC2CC3C4CCC5=CC(=O)C=CC5(C4C(CC3(C2(O1)C(=O)CO)C)O)C

> <PUBCHEM_OPENEYE_ISO_SMILES>
CCCC1O[C@@H]2C[C@H]3[C@@H]4CCC5=CC(=O)C=C[C@@]5([C@H]4[C@H](C[C@@]3([C@@]2(O1)C(=O)CO)C)O)C

> <PUBCHEM_CACTVS_TPSA>
93.1

> <PUBCHEM_MONOISOTOPIC_WEIGHT>
430.23553880

> <PUBCHEM_TOTAL_CHARGE>
0

> <PUBCHEM_HEAVY_ATOM_COUNT>
31

> <PUBCHEM_ATOM_DEF_STEREO_COUNT>
8

> <PUBCHEM_ATOM_UDEF_STEREO_COUNT>
1

> <PUBCHEM_BOND_DEF_STEREO_COUNT>
0

> <PUBCHEM_BOND_UDEF_STEREO_COUNT>
0

> <PUBCHEM_ISOTOPIC_ATOM_COUNT>
0

> <PUBCHEM_COMPONENT_COUNT>
1

> <PUBCHEM_CACTVS_TAUTO_COUNT>
-1

> <PUBCHEM_COORDINATE_TYPE>
1
5
255

> <PUBCHEM_BONDANNOTATIONS>
10  21  5
11  34  6
13  37  5
16  23  5
22  48  3
15  3  5
7  18  5
8  32  6
9  33  5

$$$$
