71387
  -OEChem-02142402272D

 54 57  0     1  0  0  0  0  0999 V2000
    9.8566    2.7852    0.0000 Cl  0  0  0  0  0  0  0  0  0  0  0  0
    5.0182    0.0790    0.0000 F   0  0  0  0  0  0  0  0  0  0  0  0
    8.0319    1.5693    0.0000 O   0  0  0  0  0  0  0  0  0  0  0  0
    4.7950    0.8130    0.0000 O   0  0  0  0  0  0  0  0  0  0  0  0
   10.0622    0.7958    0.0000 O   0  0  0  0  0  0  0  0  0  0  0  0
    2.0000   -2.7394    0.0000 O   0  0  0  0  0  0  0  0  0  0  0  0
    7.3931    0.3130    0.0000 C   0  0  1  0  0  0  0  0  0  0  0  0
    7.3931   -0.6870    0.0000 C   0  0  2  0  0  0  0  0  0  0  0  0
    6.5271   -1.1870    0.0000 C   0  0  1  0  0  0  0  0  0  0  0  0
    8.3393    0.6177    0.0000 C   0  0  1  0  0  0  0  0  0  0  0  0
    5.6610   -0.6870    0.0000 C   0  0  2  0  0  0  0  0  0  0  0  0
    8.3393   -0.9917    0.0000 C   0  0  0  0  0  0  0  0  0  0  0  0
    8.9229   -0.1870    0.0000 C   0  0  2  0  0  0  0  0  0  0  0  0
    6.5271    0.8130    0.0000 C   0  0  0  0  0  0  0  0  0  0  0  0
    4.7510   -1.1939    0.0000 C   0  0  1  0  0  0  0  0  0  0  0  0
    6.5431   -2.2285    0.0000 C   0  0  0  0  0  0  0  0  0  0  0  0
    5.6610    0.3130    0.0000 C   0  0  0  0  0  0  0  0  0  0  0  0
    7.3931    1.3130    0.0000 C   0  0  0  0  0  0  0  0  0  0  0  0
    5.6451   -2.7563    0.0000 C   0  0  0  0  0  0  0  0  0  0  0  0
    4.7430   -2.2355    0.0000 C   0  0  0  0  0  0  0  0  0  0  0  0
    9.1493    1.2041    0.0000 C   0  0  0  0  0  0  0  0  0  0  0  0
    9.9229   -0.1870    0.0000 C   0  0  0  0  0  0  0  0  0  0  0  0
    4.4163   -0.2516    0.0000 C   0  0  0  0  0  0  0  0  0  0  0  0
    3.8242   -0.6298    0.0000 C   0  0  0  0  0  0  0  0  0  0  0  0
    3.8076   -2.7852    0.0000 C   0  0  0  0  0  0  0  0  0  0  0  0
    9.0465    2.1988    0.0000 C   0  0  0  0  0  0  0  0  0  0  0  0
    2.8763   -1.1577    0.0000 C   0  0  0  0  0  0  0  0  0  0  0  0
    2.8680   -2.2427    0.0000 C   0  0  0  0  0  0  0  0  0  0  0  0
    7.4830   -1.5322    0.0000 H   0  0  0  0  0  0  0  0  0  0  0  0
    7.2664   -1.6063    0.0000 H   0  0  0  0  0  0  0  0  0  0  0  0
    8.0883   -1.5586    0.0000 H   0  0  0  0  0  0  0  0  0  0  0  0
    8.8767   -1.3010    0.0000 H   0  0  0  0  0  0  0  0  0  0  0  0
    9.2046   -0.7393    0.0000 H   0  0  0  0  0  0  0  0  0  0  0  0
    6.9256    1.2879    0.0000 H   0  0  0  0  0  0  0  0  0  0  0  0
    6.1285    1.2879    0.0000 H   0  0  0  0  0  0  0  0  0  0  0  0
    6.7612   -2.8089    0.0000 H   0  0  0  0  0  0  0  0  0  0  0  0
    7.1523   -2.1130    0.0000 H   0  0  0  0  0  0  0  0  0  0  0  0
    8.0131    1.3130    0.0000 H   0  0  0  0  0  0  0  0  0  0  0  0
    7.3931    1.9330    0.0000 H   0  0  0  0  0  0  0  0  0  0  0  0
    6.7731    1.3130    0.0000 H   0  0  0  0  0  0  0  0  0  0  0  0
    5.2478   -3.2322    0.0000 H   0  0  0  0  0  0  0  0  0  0  0  0
    6.0460   -3.2292    0.0000 H   0  0  0  0  0  0  0  0  0  0  0  0
    9.9229   -0.8070    0.0000 H   0  0  0  0  0  0  0  0  0  0  0  0
   10.5429   -0.1870    0.0000 H   0  0  0  0  0  0  0  0  0  0  0  0
    9.9229    0.4330    0.0000 H   0  0  0  0  0  0  0  0  0  0  0  0
    8.4476    2.0293    0.0000 H   0  0  0  0  0  0  0  0  0  0  0  0
    5.0005   -0.0440    0.0000 H   0  0  0  0  0  0  0  0  0  0  0  0
    4.2087    0.3327    0.0000 H   0  0  0  0  0  0  0  0  0  0  0  0
    3.8320   -0.4591    0.0000 H   0  0  0  0  0  0  0  0  0  0  0  0
    3.8361   -0.0099    0.0000 H   0  0  0  0  0  0  0  0  0  0  0  0
    3.8100   -3.4052    0.0000 H   0  0  0  0  0  0  0  0  0  0  0  0
    8.7757    2.7565    0.0000 H   0  0  0  0  0  0  0  0  0  0  0  0
    8.4502    2.0289    0.0000 H   0  0  0  0  0  0  0  0  0  0  0  0
    2.3430   -0.8415    0.0000 H   0  0  0  0  0  0  0  0  0  0  0  0
  1 26  1  0  0  0  0
 11  2  1  6  0  0  0
 10  3  1  6  0  0  0
  3 46  1  0  0  0  0
  4 17  2  0  0  0  0
  5 21  2  0  0  0  0
  6 28  2  0  0  0  0
  7  8  1  0  0  0  0
  7 10  1  0  0  0  0
  7 14  1  0  0  0  0
  7 18  1  1  0  0  0
  8  9  1  0  0  0  0
  8 12  1  0  0  0  0
  8 29  1  6  0  0  0
  9 11  1  0  0  0  0
  9 16  1  0  0  0  0
  9 30  1  1  0  0  0
 10 13  1  0  0  0  0
 10 21  1  0  0  0  0
 11 15  1  0  0  0  0
 11 17  1  0  0  0  0
 12 13  1  0  0  0  0
 12 31  1  0  0  0  0
 12 32  1  0  0  0  0
 13 22  1  1  0  0  0
 13 33  1  0  0  0  0
 14 17  1  0  0  0  0
 14 34  1  0  0  0  0
 14 35  1  0  0  0  0
 15 20  1  0  0  0  0
 15 23  1  1  0  0  0
 15 24  1  0  0  0  0
 16 19  1  0  0  0  0
 16 36  1  0  0  0  0
 16 37  1  0  0  0  0
 18 38  1  0  0  0  0
 18 39  1  0  0  0  0
 18 40  1  0  0  0  0
 19 20  1  0  0  0  0
 19 41  1  0  0  0  0
 19 42  1  0  0  0  0
 20 25  2  0  0  0  0
 21 26  1  0  0  0  0
 22 43  1  0  0  0  0
 22 44  1  0  0  0  0
 22 45  1  0  0  0  0
 23 47  1  0  0  0  0
 23 48  1  0  0  0  0
 23 49  1  0  0  0  0
 24 27  2  0  0  0  0
 24 50  1  0  0  0  0
 25 28  1  0  0  0  0
 25 51  1  0  0  0  0
 26 52  1  0  0  0  0
 26 53  1  0  0  0  0
 27 28  1  0  0  0  0
 27 54  1  0  0  0  0
M  END
> <PUBCHEM_COMPOUND_CID>
71387

> <PUBCHEM_COMPOUND_CANONICALIZED>
1

> <PUBCHEM_CACTVS_COMPLEXITY>
850

> <PUBCHEM_CACTVS_HBOND_ACCEPTOR>
5

> <PUBCHEM_CACTVS_HBOND_DONOR>
1

> <PUBCHEM_CACTVS_ROTATABLE_BOND>
2

> <PUBCHEM_CACTVS_SUBSKEYS>
AAADceB4OQAEAAAAAAAAAAAAAAAAAYAAAAAwYIAAAAAAAGDAAAAAGwIACAAAD0eAgEACAAAAAgCIAqBSAAIAAAAgAAAICAFAAkhAABIBAQAAQAAEgAAIAYOKyvCvgAAAAAAAAACAAAQAACAAAYAADAAAAA==

> <PUBCHEM_IUPAC_OPENEYE_NAME>
(8S,9R,10S,13S,14S,16S,17R)-17-(2-chloroacetyl)-9-fluoro-17-hydroxy-10,13,16-trimethyl-7,8,12,14,15,16-hexahydro-6H-cyclopenta[a]phenanthrene-3,11-dione

> <PUBCHEM_IUPAC_CAS_NAME>
(8S,9R,10S,13S,14S,16S,17R)-17-(2-chloro-1-oxoethyl)-9-fluoro-17-hydroxy-10,13,16-trimethyl-7,8,12,14,15,16-hexahydro-6H-cyclopenta[a]phenanthrene-3,11-dione

> <PUBCHEM_IUPAC_NAME_MARKUP>
(8<I>S</I>,9<I>R</I>,10<I>S</I>,13<I>S</I>,14<I>S</I>,16<I>S</I>,17<I>R</I>)-17-(2-chloroacetyl)-9-fluoro-17-hydroxy-10,13,16-trimethyl-7,8,12,14,15,16-hexahydro-6<I>H</I>-cyclopenta[a]phenanthrene-3,11-dione

> <PUBCHEM_IUPAC_NAME>
(8S,9R,10S,13S,14S,16S,17R)-17-(2-chloroacetyl)-9-fluoro-17-hydroxy-10,13,16-trimethyl-7,8,12,14,15,16-hexahydro-6H-cyclopenta[a]phenanthrene-3,11-dione

> <PUBCHEM_IUPAC_SYSTEMATIC_NAME>
(8S,9R,10S,13S,14S,16S,17R)-17-(2-chloranylethanoyl)-9-fluoranyl-10,13,16-trimethyl-17-oxidanyl-7,8,12,14,15,16-hexahydro-6H-cyclopenta[a]phenanthrene-3,11-dione

> <PUBCHEM_IUPAC_TRADITIONAL_NAME>
(8S,9R,10S,13S,14S,16S,17R)-17-(2-chloroacetyl)-9-fluoro-17-hydroxy-10,13,16-trimethyl-7,8,12,14,15,16-hexahydro-6H-cyclopenta[a]phenanthrene-3,11-quinone

> <PUBCHEM_IUPAC_INCHI>
InChI=1S/C22H26ClFO4/c1-12-8-16-15-5-4-13-9-14(25)6-7-19(13,2)21(15,24)17(26)10-20(16,3)22(12,28)18(27)11-23/h6-7,9,12,15-16,28H,4-5,8,10-11H2,1-3H3/t12-,15-,16-,19-,20-,21-,22-/m0/s1

> <PUBCHEM_IUPAC_INCHIKEY>
XXIFVOHLGBURIG-OZCCCYNHSA-N

> <PUBCHEM_XLOGP3>
2.6

> <PUBCHEM_EXACT_MASS>
408.1503652

> <PUBCHEM_MOLECULAR_FORMULA>
C22H26ClFO4

> <PUBCHEM_MOLECULAR_WEIGHT>
408.9

> <PUBCHEM_OPENEYE_CAN_SMILES>
CC1CC2C3CCC4=CC(=O)C=CC4(C3(C(=O)CC2(C1(C(=O)CCl)O)C)F)C

> <PUBCHEM_OPENEYE_ISO_SMILES>
C[C@H]1C[C@H]2[C@@H]3CCC4=CC(=O)C=C[C@@]4([C@]3(C(=O)C[C@@]2([C@]1(C(=O)CCl)O)C)F)C

> <PUBCHEM_CACTVS_TPSA>
71.4

> <PUBCHEM_MONOISOTOPIC_WEIGHT>
408.1503652

> <PUBCHEM_TOTAL_CHARGE>
0

> <PUBCHEM_HEAVY_ATOM_COUNT>
28

> <PUBCHEM_ATOM_DEF_STEREO_COUNT>
7

> <PUBCHEM_ATOM_UDEF_STEREO_COUNT>
0

> <PUBCHEM_BOND_DEF_STEREO_COUNT>
0

> <PUBCHEM_BOND_UDEF_STEREO_COUNT>
0

> <PUBCHEM_ISOTOPIC_ATOM_COUNT>
0

> <PUBCHEM_COMPONENT_COUNT>
1

> <PUBCHEM_CACTVS_TAUTO_COUNT>
-1

> <PUBCHEM_COORDINATE_TYPE>
1
5
255

> <PUBCHEM_BONDANNOTATIONS>
13  22  5
15  23  5
11  2  6
10  3  6
7  18  5
8  29  6
9  30  5

$$$$
