3162
  -OEChem-02142402272D

 42 43  0     1  0  0  0  0  0999 V2000
    5.0000   -0.0000    0.0000 O   0  0  0  0  0  0  0  0  0  0  0  0
    3.0000    1.7320    0.0000 N   0  0  0  0  0  0  0  0  0  0  0  0
    6.8660    1.5000    0.0000 N   0  0  0  0  0  0  0  0  0  0  0  0
    6.0000   -0.0000    0.0000 C   0  0  3  0  0  0  0  0  0  0  0  0
    6.0000   -1.0000    0.0000 C   0  0  0  0  0  0  0  0  0  0  0  0
    6.0000    1.0000    0.0000 C   0  0  0  0  0  0  0  0  0  0  0  0
    7.0000   -0.0000    0.0000 C   0  0  0  0  0  0  0  0  0  0  0  0
    4.5000    0.8660    0.0000 C   0  0  0  0  0  0  0  0  0  0  0  0
    3.5000    0.8660    0.0000 C   0  0  0  0  0  0  0  0  0  0  0  0
    6.8660   -1.5000    0.0000 C   0  0  0  0  0  0  0  0  0  0  0  0
    5.1340   -1.5000    0.0000 C   0  0  0  0  0  0  0  0  0  0  0  0
    5.1340    1.5000    0.0000 C   0  0  0  0  0  0  0  0  0  0  0  0
    6.8660   -2.5000    0.0000 C   0  0  0  0  0  0  0  0  0  0  0  0
    5.1340   -2.5000    0.0000 C   0  0  0  0  0  0  0  0  0  0  0  0
    5.1340    2.5000    0.0000 C   0  0  0  0  0  0  0  0  0  0  0  0
    6.0000   -3.0000    0.0000 C   0  0  0  0  0  0  0  0  0  0  0  0
    2.0000    1.7320    0.0000 C   0  0  0  0  0  0  0  0  0  0  0  0
    3.5000    2.5981    0.0000 C   0  0  0  0  0  0  0  0  0  0  0  0
    6.8660    2.5000    0.0000 C   0  0  0  0  0  0  0  0  0  0  0  0
    6.0000    3.0000    0.0000 C   0  0  0  0  0  0  0  0  0  0  0  0
    7.0000   -0.6200    0.0000 H   0  0  0  0  0  0  0  0  0  0  0  0
    7.6200   -0.0000    0.0000 H   0  0  0  0  0  0  0  0  0  0  0  0
    7.0000    0.6200    0.0000 H   0  0  0  0  0  0  0  0  0  0  0  0
    5.0826    1.0781    0.0000 H   0  0  0  0  0  0  0  0  0  0  0  0
    4.3923    1.4766    0.0000 H   0  0  0  0  0  0  0  0  0  0  0  0
    2.9174    0.6540    0.0000 H   0  0  0  0  0  0  0  0  0  0  0  0
    3.6077    0.2554    0.0000 H   0  0  0  0  0  0  0  0  0  0  0  0
    7.4030   -1.1900    0.0000 H   0  0  0  0  0  0  0  0  0  0  0  0
    4.5970   -1.1900    0.0000 H   0  0  0  0  0  0  0  0  0  0  0  0
    4.5970    1.1900    0.0000 H   0  0  0  0  0  0  0  0  0  0  0  0
    7.4030   -2.8100    0.0000 H   0  0  0  0  0  0  0  0  0  0  0  0
    4.5970   -2.8100    0.0000 H   0  0  0  0  0  0  0  0  0  0  0  0
    4.5970    2.8100    0.0000 H   0  0  0  0  0  0  0  0  0  0  0  0
    6.0000   -3.6200    0.0000 H   0  0  0  0  0  0  0  0  0  0  0  0
    2.0000    2.3521    0.0000 H   0  0  0  0  0  0  0  0  0  0  0  0
    1.3800    1.7320    0.0000 H   0  0  0  0  0  0  0  0  0  0  0  0
    2.0000    1.1120    0.0000 H   0  0  0  0  0  0  0  0  0  0  0  0
    4.0369    2.2881    0.0000 H   0  0  0  0  0  0  0  0  0  0  0  0
    3.8100    3.1350    0.0000 H   0  0  0  0  0  0  0  0  0  0  0  0
    2.9631    2.9081    0.0000 H   0  0  0  0  0  0  0  0  0  0  0  0
    7.4030    2.8100    0.0000 H   0  0  0  0  0  0  0  0  0  0  0  0
    6.0000    3.6200    0.0000 H   0  0  0  0  0  0  0  0  0  0  0  0
  1  4  1  0  0  0  0
  1  8  1  0  0  0  0
  2  9  1  0  0  0  0
  2 17  1  0  0  0  0
  2 18  1  0  0  0  0
  3  6  1  0  0  0  0
  3 19  2  0  0  0  0
  4  5  1  0  0  0  0
  4  6  1  0  0  0  0
  4  7  1  0  0  0  0
  5 10  2  0  0  0  0
  5 11  1  0  0  0  0
  6 12  2  0  0  0  0
  7 21  1  0  0  0  0
  7 22  1  0  0  0  0
  7 23  1  0  0  0  0
  8  9  1  0  0  0  0
  8 24  1  0  0  0  0
  8 25  1  0  0  0  0
  9 26  1  0  0  0  0
  9 27  1  0  0  0  0
 10 13  1  0  0  0  0
 10 28  1  0  0  0  0
 11 14  2  0  0  0  0
 11 29  1  0  0  0  0
 12 15  1  0  0  0  0
 12 30  1  0  0  0  0
 13 16  2  0  0  0  0
 13 31  1  0  0  0  0
 14 16  1  0  0  0  0
 14 32  1  0  0  0  0
 15 20  2  0  0  0  0
 15 33  1  0  0  0  0
 16 34  1  0  0  0  0
 17 35  1  0  0  0  0
 17 36  1  0  0  0  0
 17 37  1  0  0  0  0
 18 38  1  0  0  0  0
 18 39  1  0  0  0  0
 18 40  1  0  0  0  0
 19 20  1  0  0  0  0
 19 41  1  0  0  0  0
 20 42  1  0  0  0  0
M  END
> <PUBCHEM_COMPOUND_CID>
3162

> <PUBCHEM_COMPOUND_CANONICALIZED>
1

> <PUBCHEM_CACTVS_COMPLEXITY>
276

> <PUBCHEM_CACTVS_HBOND_ACCEPTOR>
3

> <PUBCHEM_CACTVS_HBOND_DONOR>
0

> <PUBCHEM_CACTVS_ROTATABLE_BOND>
6

> <PUBCHEM_CACTVS_SUBSKEYS>
AAADceB7IAAAAAAAAAAAAAAAAAAAAAAAAAA8QAAAAAAAAAABwAAAHgAAAAAADEzhngY+gJMIFACgAzRnRASCgCAxAiAI2CA4bJgKJuLAsZmHMAhkwAHY6AeQwOAOgAAAAAAAAAAAAAAAAAAAAAAAAAAAAA==

> <PUBCHEM_IUPAC_OPENEYE_NAME>
N,N-dimethyl-2-[1-phenyl-1-(2-pyridyl)ethoxy]ethanamine

> <PUBCHEM_IUPAC_CAS_NAME>
N,N-dimethyl-2-[1-phenyl-1-(2-pyridinyl)ethoxy]ethanamine

> <PUBCHEM_IUPAC_NAME_MARKUP>
<I>N</I>,<I>N</I>-dimethyl-2-(1-phenyl-1-pyridin-2-ylethoxy)ethanamine

> <PUBCHEM_IUPAC_NAME>
N,N-dimethyl-2-(1-phenyl-1-pyridin-2-ylethoxy)ethanamine

> <PUBCHEM_IUPAC_SYSTEMATIC_NAME>
N,N-dimethyl-2-(1-phenyl-1-pyridin-2-yl-ethoxy)ethanamine

> <PUBCHEM_IUPAC_TRADITIONAL_NAME>
dimethyl-[2-[1-phenyl-1-(2-pyridyl)ethoxy]ethyl]amine

> <PUBCHEM_IUPAC_INCHI>
InChI=1S/C17H22N2O/c1-17(20-14-13-19(2)3,15-9-5-4-6-10-15)16-11-7-8-12-18-16/h4-12H,13-14H2,1-3H3

> <PUBCHEM_IUPAC_INCHIKEY>
HCFDWZZGGLSKEP-UHFFFAOYSA-N

> <PUBCHEM_XLOGP3_AA>
2.5

> <PUBCHEM_EXACT_MASS>
270.173213330

> <PUBCHEM_MOLECULAR_FORMULA>
C17H22N2O

> <PUBCHEM_MOLECULAR_WEIGHT>
270.37

> <PUBCHEM_OPENEYE_CAN_SMILES>
CC(C1=CC=CC=C1)(C2=CC=CC=N2)OCCN(C)C

> <PUBCHEM_OPENEYE_ISO_SMILES>
CC(C1=CC=CC=C1)(C2=CC=CC=N2)OCCN(C)C

> <PUBCHEM_CACTVS_TPSA>
25.4

> <PUBCHEM_MONOISOTOPIC_WEIGHT>
270.173213330

> <PUBCHEM_TOTAL_CHARGE>
0

> <PUBCHEM_HEAVY_ATOM_COUNT>
20

> <PUBCHEM_ATOM_DEF_STEREO_COUNT>
0

> <PUBCHEM_ATOM_UDEF_STEREO_COUNT>
1

> <PUBCHEM_BOND_DEF_STEREO_COUNT>
0

> <PUBCHEM_BOND_UDEF_STEREO_COUNT>
0

> <PUBCHEM_ISOTOPIC_ATOM_COUNT>
0

> <PUBCHEM_COMPONENT_COUNT>
1

> <PUBCHEM_CACTVS_TAUTO_COUNT>
-1

> <PUBCHEM_COORDINATE_TYPE>
1
5
255

> <PUBCHEM_BONDANNOTATIONS>
10  13  8
11  14  8
12  15  8
13  16  8
14  16  8
15  20  8
19  20  8
3  19  8
3  6  8
4  7  3
5  10  8
5  11  8
6  12  8

$$$$
