1892
  -OEChem-02142402102D

 28 29  0     0  0  0  0  0  0999 V2000
    3.7320    1.4801    0.0000 O   0  0  0  0  0  0  0  0  0  0  0  0
    2.0000   -1.5199    0.0000 O   0  0  0  0  0  0  0  0  0  0  0  0
    7.1441    2.3921    0.0000 O   0  0  0  0  0  0  0  0  0  0  0  0
    5.5443    0.2848    0.0000 N   0  0  0  0  0  0  0  0  0  0  0  0
    3.7320   -1.5199    0.0000 N   0  0  0  0  0  0  0  0  0  0  0  0
    2.8660   -0.0199    0.0000 N   0  0  0  0  0  0  0  0  0  0  0  0
    5.5443   -1.3247    0.0000 N   0  0  0  0  0  0  0  0  0  0  0  0
    4.5981   -0.0199    0.0000 C   0  0  0  0  0  0  0  0  0  0  0  0
    4.5981   -1.0199    0.0000 C   0  0  0  0  0  0  0  0  0  0  0  0
    5.8550    1.2353    0.0000 C   0  0  0  0  0  0  0  0  0  0  0  0
    3.7320    0.4801    0.0000 C   0  0  0  0  0  0  0  0  0  0  0  0
    2.8660   -1.0199    0.0000 C   0  0  0  0  0  0  0  0  0  0  0  0
    6.1279   -0.5199    0.0000 C   0  0  0  0  0  0  0  0  0  0  0  0
    6.8335    1.4416    0.0000 C   0  0  0  0  0  0  0  0  0  0  0  0
    3.7320   -2.5199    0.0000 C   0  0  0  0  0  0  0  0  0  0  0  0
    2.0000    0.4801    0.0000 C   0  0  0  0  0  0  0  0  0  0  0  0
    5.8344    1.8550    0.0000 H   0  0  0  0  0  0  0  0  0  0  0  0
    5.2411    1.3227    0.0000 H   0  0  0  0  0  0  0  0  0  0  0  0
    6.7479   -0.5199    0.0000 H   0  0  0  0  0  0  0  0  0  0  0  0
    6.8540    0.8219    0.0000 H   0  0  0  0  0  0  0  0  0  0  0  0
    7.4473    1.3542    0.0000 H   0  0  0  0  0  0  0  0  0  0  0  0
    3.1120   -2.5199    0.0000 H   0  0  0  0  0  0  0  0  0  0  0  0
    3.7320   -3.1399    0.0000 H   0  0  0  0  0  0  0  0  0  0  0  0
    4.3520   -2.5199    0.0000 H   0  0  0  0  0  0  0  0  0  0  0  0
    2.3100    1.0170    0.0000 H   0  0  0  0  0  0  0  0  0  0  0  0
    1.4631    0.7901    0.0000 H   0  0  0  0  0  0  0  0  0  0  0  0
    1.6900   -0.0569    0.0000 H   0  0  0  0  0  0  0  0  0  0  0  0
    7.7508    2.5199    0.0000 H   0  0  0  0  0  0  0  0  0  0  0  0
  1 11  2  0  0  0  0
  2 12  2  0  0  0  0
  3 14  1  0  0  0  0
  3 28  1  0  0  0  0
  4  8  1  0  0  0  0
  4 10  1  0  0  0  0
  4 13  1  0  0  0  0
  5  9  1  0  0  0  0
  5 12  1  0  0  0  0
  5 15  1  0  0  0  0
  6 11  1  0  0  0  0
  6 12  1  0  0  0  0
  6 16  1  0  0  0  0
  7  9  1  0  0  0  0
  7 13  2  0  0  0  0
  8  9  2  0  0  0  0
  8 11  1  0  0  0  0
 10 14  1  0  0  0  0
 10 17  1  0  0  0  0
 10 18  1  0  0  0  0
 13 19  1  0  0  0  0
 14 20  1  0  0  0  0
 14 21  1  0  0  0  0
 15 22  1  0  0  0  0
 15 23  1  0  0  0  0
 15 24  1  0  0  0  0
 16 25  1  0  0  0  0
 16 26  1  0  0  0  0
 16 27  1  0  0  0  0
M  END
> <PUBCHEM_COMPOUND_CID>
1892

> <PUBCHEM_COMPOUND_CANONICALIZED>
1

> <PUBCHEM_CACTVS_COMPLEXITY>
322

> <PUBCHEM_CACTVS_HBOND_ACCEPTOR>
4

> <PUBCHEM_CACTVS_HBOND_DONOR>
1

> <PUBCHEM_CACTVS_ROTATABLE_BOND>
2

> <PUBCHEM_CACTVS_SUBSKEYS>
AAADccBzsAAAAAAAAAAAAAAAAAAAAWAAAAAsAAAAAAAAAFgBgAAAHgAACAAACAjhlgYHsBcMEgCoAQdxdACAgC0XEKABUAGoVECCWAhASCAUAIgIByLQAGAAAAAAAAAAAAAAAAAAAAAAAAAAAAAAAAAAAA==

> <PUBCHEM_IUPAC_OPENEYE_NAME>
7-(2-hydroxyethyl)-1,3-dimethyl-purine-2,6-dione

> <PUBCHEM_IUPAC_CAS_NAME>
7-(2-hydroxyethyl)-1,3-dimethylpurine-2,6-dione

> <PUBCHEM_IUPAC_NAME_MARKUP>
7-(2-hydroxyethyl)-1,3-dimethylpurine-2,6-dione

> <PUBCHEM_IUPAC_NAME>
7-(2-hydroxyethyl)-1,3-dimethylpurine-2,6-dione

> <PUBCHEM_IUPAC_SYSTEMATIC_NAME>
7-(2-hydroxyethyl)-1,3-dimethyl-purine-2,6-dione

> <PUBCHEM_IUPAC_TRADITIONAL_NAME>
7-(2-hydroxyethyl)-1,3-dimethyl-xanthine

> <PUBCHEM_IUPAC_INCHI>
InChI=1S/C9H12N4O3/c1-11-7-6(8(15)12(2)9(11)16)13(3-4-14)5-10-7/h5,14H,3-4H2,1-2H3

> <PUBCHEM_IUPAC_INCHIKEY>
NWPRCRWQMGIBOT-UHFFFAOYSA-N

> <PUBCHEM_XLOGP3>
-1.2

> <PUBCHEM_EXACT_MASS>
224.09094026

> <PUBCHEM_MOLECULAR_FORMULA>
C9H12N4O3

> <PUBCHEM_MOLECULAR_WEIGHT>
224.22

> <PUBCHEM_OPENEYE_CAN_SMILES>
CN1C2=C(C(=O)N(C1=O)C)N(C=N2)CCO

> <PUBCHEM_OPENEYE_ISO_SMILES>
CN1C2=C(C(=O)N(C1=O)C)N(C=N2)CCO

> <PUBCHEM_CACTVS_TPSA>
78.7

> <PUBCHEM_MONOISOTOPIC_WEIGHT>
224.09094026

> <PUBCHEM_TOTAL_CHARGE>
0

> <PUBCHEM_HEAVY_ATOM_COUNT>
16

> <PUBCHEM_ATOM_DEF_STEREO_COUNT>
0

> <PUBCHEM_ATOM_UDEF_STEREO_COUNT>
0

> <PUBCHEM_BOND_DEF_STEREO_COUNT>
0

> <PUBCHEM_BOND_UDEF_STEREO_COUNT>
0

> <PUBCHEM_ISOTOPIC_ATOM_COUNT>
0

> <PUBCHEM_COMPONENT_COUNT>
1

> <PUBCHEM_CACTVS_TAUTO_COUNT>
-1

> <PUBCHEM_COORDINATE_TYPE>
1
5
255

> <PUBCHEM_BONDANNOTATIONS>
4  13  8
4  8  8
5  12  8
5  9  8
6  11  8
6  12  8
7  13  8
7  9  8
8  11  8
8  9  8

$$$$
