4495
  -OEChem-02142402232D

 33 34  0     0  0  0  0  0  0999 V2000
    7.1962    2.0670    0.0000 S   0  0  0  0  0  0  0  0  0  0  0  0
    4.5981    0.5670    0.0000 O   0  0  0  0  0  0  0  0  0  0  0  0
    6.6962    2.9330    0.0000 O   0  0  0  0  0  0  0  0  0  0  0  0
    7.6962    1.2010    0.0000 O   0  0  0  0  0  0  0  0  0  0  0  0
    7.1962   -2.9330    0.0000 O   0  5  0  0  0  0  0  0  0  0  0  0
    5.4641   -2.9330    0.0000 O   0  0  0  0  0  0  0  0  0  0  0  0
    6.3301    1.5670    0.0000 N   0  0  0  0  0  0  0  0  0  0  0  0
    6.3301   -2.4330    0.0000 N   0  3  0  0  0  0  0  0  0  0  0  0
    6.3301    0.5670    0.0000 C   0  0  0  0  0  0  0  0  0  0  0  0
    5.4641    0.0670    0.0000 C   0  0  0  0  0  0  0  0  0  0  0  0
    7.1962    0.0670    0.0000 C   0  0  0  0  0  0  0  0  0  0  0  0
    5.4641   -0.9330    0.0000 C   0  0  0  0  0  0  0  0  0  0  0  0
    6.3301   -1.4330    0.0000 C   0  0  0  0  0  0  0  0  0  0  0  0
    7.1962   -0.9330    0.0000 C   0  0  0  0  0  0  0  0  0  0  0  0
    8.0622    2.5670    0.0000 C   0  0  0  0  0  0  0  0  0  0  0  0
    3.7320    0.0670    0.0000 C   0  0  0  0  0  0  0  0  0  0  0  0
    2.8660    0.5670    0.0000 C   0  0  0  0  0  0  0  0  0  0  0  0
    3.7320   -0.9330    0.0000 C   0  0  0  0  0  0  0  0  0  0  0  0
    2.0000    0.0670    0.0000 C   0  0  0  0  0  0  0  0  0  0  0  0
    2.8660   -1.4330    0.0000 C   0  0  0  0  0  0  0  0  0  0  0  0
    2.0000   -0.9330    0.0000 C   0  0  0  0  0  0  0  0  0  0  0  0
    5.7932    1.8770    0.0000 H   0  0  0  0  0  0  0  0  0  0  0  0
    7.7331    0.3770    0.0000 H   0  0  0  0  0  0  0  0  0  0  0  0
    4.9272   -1.2430    0.0000 H   0  0  0  0  0  0  0  0  0  0  0  0
    7.7331   -1.2430    0.0000 H   0  0  0  0  0  0  0  0  0  0  0  0
    8.3722    2.0300    0.0000 H   0  0  0  0  0  0  0  0  0  0  0  0
    8.5991    2.8770    0.0000 H   0  0  0  0  0  0  0  0  0  0  0  0
    7.7522    3.1039    0.0000 H   0  0  0  0  0  0  0  0  0  0  0  0
    2.8660    1.1870    0.0000 H   0  0  0  0  0  0  0  0  0  0  0  0
    4.2690   -1.2430    0.0000 H   0  0  0  0  0  0  0  0  0  0  0  0
    1.4631    0.3770    0.0000 H   0  0  0  0  0  0  0  0  0  0  0  0
    2.8660   -2.0530    0.0000 H   0  0  0  0  0  0  0  0  0  0  0  0
    1.4631   -1.2430    0.0000 H   0  0  0  0  0  0  0  0  0  0  0  0
  1  3  2  0  0  0  0
  1  4  2  0  0  0  0
  1  7  1  0  0  0  0
  1 15  1  0  0  0  0
  2 10  1  0  0  0  0
  2 16  1  0  0  0  0
  5  8  1  0  0  0  0
  6  8  2  0  0  0  0
  7  9  1  0  0  0  0
  7 22  1  0  0  0  0
  8 13  1  0  0  0  0
  9 10  2  0  0  0  0
  9 11  1  0  0  0  0
 10 12  1  0  0  0  0
 11 14  2  0  0  0  0
 11 23  1  0  0  0  0
 12 13  2  0  0  0  0
 12 24  1  0  0  0  0
 13 14  1  0  0  0  0
 14 25  1  0  0  0  0
 15 26  1  0  0  0  0
 15 27  1  0  0  0  0
 15 28  1  0  0  0  0
 16 17  2  0  0  0  0
 16 18  1  0  0  0  0
 17 19  1  0  0  0  0
 17 29  1  0  0  0  0
 18 20  2  0  0  0  0
 18 30  1  0  0  0  0
 19 21  2  0  0  0  0
 19 31  1  0  0  0  0
 20 21  1  0  0  0  0
 20 32  1  0  0  0  0
 21 33  1  0  0  0  0
M  CHG  2   5  -1   8   1
M  END
> <PUBCHEM_COMPOUND_CID>
4495

> <PUBCHEM_COMPOUND_CANONICALIZED>
1

> <PUBCHEM_CACTVS_COMPLEXITY>
450

> <PUBCHEM_CACTVS_HBOND_ACCEPTOR>
6

> <PUBCHEM_CACTVS_HBOND_DONOR>
1

> <PUBCHEM_CACTVS_ROTATABLE_BOND>
4

> <PUBCHEM_CACTVS_SUBSKEYS>
AAADccBzOABAAAAAAAAAAAAAAAAAAAAAAAAwYAAAAAAAAAABQAAAHgQUQAAACAyBkACyxoBQRAKBACRCQ3CCCAAgIgAoiAAHbIoOJiKEsZuDOCDm0BkI6AeQUAEAAACAAgAAEAAAAQAEAAAgAAAAAAAAAA==

> <PUBCHEM_IUPAC_OPENEYE_NAME>
N-(4-nitro-2-phenoxy-phenyl)methanesulfonamide

> <PUBCHEM_IUPAC_CAS_NAME>
N-(4-nitro-2-phenoxyphenyl)methanesulfonamide

> <PUBCHEM_IUPAC_NAME_MARKUP>
<I>N</I>-(4-nitro-2-phenoxyphenyl)methanesulfonamide

> <PUBCHEM_IUPAC_NAME>
N-(4-nitro-2-phenoxyphenyl)methanesulfonamide

> <PUBCHEM_IUPAC_SYSTEMATIC_NAME>
N-(4-nitro-2-phenoxy-phenyl)methanesulfonamide

> <PUBCHEM_IUPAC_TRADITIONAL_NAME>
N-(4-nitro-2-phenoxy-phenyl)methanesulfonamide

> <PUBCHEM_IUPAC_INCHI>
InChI=1S/C13H12N2O5S/c1-21(18,19)14-12-8-7-10(15(16)17)9-13(12)20-11-5-3-2-4-6-11/h2-9,14H,1H3

> <PUBCHEM_IUPAC_INCHIKEY>
HYWYRSMBCFDLJT-UHFFFAOYSA-N

> <PUBCHEM_XLOGP3>
2.6

> <PUBCHEM_EXACT_MASS>
308.04669266

> <PUBCHEM_MOLECULAR_FORMULA>
C13H12N2O5S

> <PUBCHEM_MOLECULAR_WEIGHT>
308.31

> <PUBCHEM_OPENEYE_CAN_SMILES>
CS(=O)(=O)NC1=C(C=C(C=C1)[N+](=O)[O-])OC2=CC=CC=C2

> <PUBCHEM_OPENEYE_ISO_SMILES>
CS(=O)(=O)NC1=C(C=C(C=C1)[N+](=O)[O-])OC2=CC=CC=C2

> <PUBCHEM_CACTVS_TPSA>
110

> <PUBCHEM_MONOISOTOPIC_WEIGHT>
308.04669266

> <PUBCHEM_TOTAL_CHARGE>
0

> <PUBCHEM_HEAVY_ATOM_COUNT>
21

> <PUBCHEM_ATOM_DEF_STEREO_COUNT>
0

> <PUBCHEM_ATOM_UDEF_STEREO_COUNT>
0

> <PUBCHEM_BOND_DEF_STEREO_COUNT>
0

> <PUBCHEM_BOND_UDEF_STEREO_COUNT>
0

> <PUBCHEM_ISOTOPIC_ATOM_COUNT>
0

> <PUBCHEM_COMPONENT_COUNT>
1

> <PUBCHEM_CACTVS_TAUTO_COUNT>
-1

> <PUBCHEM_COORDINATE_TYPE>
1
5
255

> <PUBCHEM_BONDANNOTATIONS>
10  12  8
11  14  8
12  13  8
13  14  8
16  17  8
16  18  8
17  19  8
18  20  8
19  21  8
20  21  8
9  10  8
9  11  8

$$$$
