6432002
  -OEChem-02142402242D

  2  1  0     0  0  0  0  0  0999 V2000
    3.0000    0.0000    0.0000 F   0  0  0  0  0  0  0  0  0  0  0  0
    2.0000    0.0000    0.0000 O   0  4  0  0  0  0  0  0  0  0  0  0
  1  2  1  0  0  0  0
M  RAD  1   2   2
M  END
> <PUBCHEM_COMPOUND_CID>
6432002

> <PUBCHEM_COMPOUND_CANONICALIZED>
1

> <PUBCHEM_CACTVS_COMPLEXITY>
2

> <PUBCHEM_CACTVS_HBOND_ACCEPTOR>
1

> <PUBCHEM_CACTVS_HBOND_DONOR>
0

> <PUBCHEM_CACTVS_ROTATABLE_BOND>
0

> <PUBCHEM_CACTVS_SUBSKEYS>
AAADcQAAIQAAAAAAAAAAAAAAAAAAAAAAAAAAAAAAAAAAAAAAAAAAAAAAAAAAAAAAAAAAAAAAAAAAAAAAAAAAAAAAAAAAAAAAAAAAAAAAAAAAAAAAAAAAAAAAAAAAAAAAAAAAAAAAAAAAAAAAAAAAAAAAAA==

> <PUBCHEM_IUPAC_INCHI>
InChI=1S/FO/c1-2

> <PUBCHEM_IUPAC_INCHIKEY>
FXOFAYKVTOLJTJ-UHFFFAOYSA-N

> <PUBCHEM_XLOGP3_AA>
0.1

> <PUBCHEM_EXACT_MASS>
34.993317781

> <PUBCHEM_MOLECULAR_FORMULA>
FO

> <PUBCHEM_MOLECULAR_WEIGHT>
34.998

> <PUBCHEM_OPENEYE_CAN_SMILES>
[O]F

> <PUBCHEM_OPENEYE_ISO_SMILES>
[O]F

> <PUBCHEM_CACTVS_TPSA>
1

> <PUBCHEM_MONOISOTOPIC_WEIGHT>
34.993317781

> <PUBCHEM_TOTAL_CHARGE>
0

> <PUBCHEM_HEAVY_ATOM_COUNT>
2

> <PUBCHEM_ATOM_DEF_STEREO_COUNT>
0

> <PUBCHEM_ATOM_UDEF_STEREO_COUNT>
0

> <PUBCHEM_BOND_DEF_STEREO_COUNT>
0

> <PUBCHEM_BOND_UDEF_STEREO_COUNT>
0

> <PUBCHEM_ISOTOPIC_ATOM_COUNT>
0

> <PUBCHEM_COMPONENT_COUNT>
1

> <PUBCHEM_CACTVS_TAUTO_COUNT>
-1

> <PUBCHEM_COORDINATE_TYPE>
1
5
255

$$$$
