190217
  -OEChem-02142402112D

  1  0  0     0  0  0  0  0  0999 V2000
    2.0000    0.0000    0.0000 O   0  6  0  0  0  0  0  0  0  0  0  0
M  CHG  1   1  -2
M  END
> <PUBCHEM_COMPOUND_CID>
190217

> <PUBCHEM_COMPOUND_CANONICALIZED>
1

> <PUBCHEM_CACTVS_COMPLEXITY>
0

> <PUBCHEM_CACTVS_HBOND_ACCEPTOR>
1

> <PUBCHEM_CACTVS_HBOND_DONOR>
0

> <PUBCHEM_CACTVS_ROTATABLE_BOND>
0

> <PUBCHEM_CACTVS_SUBSKEYS>
AAADcQAAIAAAAAAAAAAAAAAAAAAAAAAAAAAAAAAAAAAAAAAAAAAAAAAAAAAAAAAAAAAAAAAAAAAAAAAAAAAAAAAAAAAAAAAAAAAAAAAAAAAAAAAAAAAAAAAAAAAAAAAAAAAAAAAAAAAAAAAAAAAAAAAAAA==

> <PUBCHEM_IUPAC_OPENEYE_NAME>
oxygen(2-)

> <PUBCHEM_IUPAC_CAS_NAME>
oxygen(2-)

> <PUBCHEM_IUPAC_NAME_MARKUP>
oxygen(2-)

> <PUBCHEM_IUPAC_NAME>
oxygen(2-)

> <PUBCHEM_IUPAC_SYSTEMATIC_NAME>
oxygen(2-)

> <PUBCHEM_IUPAC_TRADITIONAL_NAME>
oxygen(2-)

> <PUBCHEM_IUPAC_INCHI>
InChI=1S/O/q-2

> <PUBCHEM_IUPAC_INCHIKEY>
AHKZTVQIVOEVFO-UHFFFAOYSA-N

> <PUBCHEM_XLOGP3_AA>
-0.5

> <PUBCHEM_EXACT_MASS>
15.994914619

> <PUBCHEM_MOLECULAR_FORMULA>
O-2

> <PUBCHEM_MOLECULAR_WEIGHT>
15.999

> <PUBCHEM_OPENEYE_CAN_SMILES>
[O-2]

> <PUBCHEM_OPENEYE_ISO_SMILES>
[O-2]

> <PUBCHEM_CACTVS_TPSA>
1

> <PUBCHEM_MONOISOTOPIC_WEIGHT>
15.994914619

> <PUBCHEM_TOTAL_CHARGE>
-2

> <PUBCHEM_HEAVY_ATOM_COUNT>
1

> <PUBCHEM_ATOM_DEF_STEREO_COUNT>
0

> <PUBCHEM_ATOM_UDEF_STEREO_COUNT>
0

> <PUBCHEM_BOND_DEF_STEREO_COUNT>
0

> <PUBCHEM_BOND_UDEF_STEREO_COUNT>
0

> <PUBCHEM_ISOTOPIC_ATOM_COUNT>
0

> <PUBCHEM_COMPONENT_COUNT>
1

> <PUBCHEM_CACTVS_TAUTO_COUNT>
-1

> <PUBCHEM_COORDINATE_TYPE>
1
5
255

$$$$
