5910
  -OEChem-02142402212D

 31 32  0     1  0  0  0  0  0999 V2000
    5.0032   -1.7161    0.0000 O   0  0  0  0  0  0  0  0  0  0  0  0
    3.4154   -2.5252    0.0000 O   0  0  0  0  0  0  0  0  0  0  0  0
    6.2828    0.9160    0.0000 N   0  0  0  0  0  0  0  0  0  0  0  0
    6.4519    2.5252    0.0000 N   0  0  0  0  0  0  0  0  0  0  0  0
    4.5032   -0.1773    0.0000 C   0  0  1  0  0  0  0  0  0  0  0  0
    3.6942   -0.7651    0.0000 C   0  0  2  0  0  0  0  0  0  0  0  0
    4.5032    0.8227    0.0000 C   0  0  0  0  0  0  0  0  0  0  0  0
    5.3122   -0.7651    0.0000 C   0  0  0  0  0  0  0  0  0  0  0  0
    2.7431   -0.4561    0.0000 C   0  0  0  0  0  0  0  0  0  0  0  0
    4.0032   -1.7161    0.0000 C   0  0  0  0  0  0  0  0  0  0  0  0
    5.3692    1.3227    0.0000 C   0  0  0  0  0  0  0  0  0  0  0  0
    2.0000   -1.1252    0.0000 C   0  0  0  0  0  0  0  0  0  0  0  0
    5.4738    2.3172    0.0000 C   0  0  0  0  0  0  0  0  0  0  0  0
    6.9519    1.6591    0.0000 C   0  0  0  0  0  0  0  0  0  0  0  0
    6.4907   -0.0622    0.0000 C   0  0  0  0  0  0  0  0  0  0  0  0
    3.9508    0.1042    0.0000 H   0  0  0  0  0  0  0  0  0  0  0  0
    3.5972   -0.1527    0.0000 H   0  0  0  0  0  0  0  0  0  0  0  0
    4.2912    1.4053    0.0000 H   0  0  0  0  0  0  0  0  0  0  0  0
    3.8926    0.7151    0.0000 H   0  0  0  0  0  0  0  0  0  0  0  0
    5.8786   -1.0172    0.0000 H   0  0  0  0  0  0  0  0  0  0  0  0
    5.6222   -0.2281    0.0000 H   0  0  0  0  0  0  0  0  0  0  0  0
    3.0342    0.0914    0.0000 H   0  0  0  0  0  0  0  0  0  0  0  0
    2.2546   -0.0743    0.0000 H   0  0  0  0  0  0  0  0  0  0  0  0
    1.5851   -0.6644    0.0000 H   0  0  0  0  0  0  0  0  0  0  0  0
    1.5392   -1.5400    0.0000 H   0  0  0  0  0  0  0  0  0  0  0  0
    2.4149   -1.5859    0.0000 H   0  0  0  0  0  0  0  0  0  0  0  0
    5.0130    2.7321    0.0000 H   0  0  0  0  0  0  0  0  0  0  0  0
    7.5685    1.5943    0.0000 H   0  0  0  0  0  0  0  0  0  0  0  0
    5.8842   -0.1911    0.0000 H   0  0  0  0  0  0  0  0  0  0  0  0
    6.6196   -0.6686    0.0000 H   0  0  0  0  0  0  0  0  0  0  0  0
    7.0972    0.0667    0.0000 H   0  0  0  0  0  0  0  0  0  0  0  0
  1  8  1  0  0  0  0
  1 10  1  0  0  0  0
  2 10  2  0  0  0  0
  3 11  1  0  0  0  0
  3 14  1  0  0  0  0
  3 15  1  0  0  0  0
  4 13  1  0  0  0  0
  4 14  2  0  0  0  0
  5  6  1  0  0  0  0
  5  7  1  1  0  0  0
  5  8  1  0  0  0  0
  5 16  1  0  0  0  0
  6  9  1  1  0  0  0
  6 10  1  0  0  0  0
  6 17  1  0  0  0  0
  7 11  1  0  0  0  0
  7 18  1  0  0  0  0
  7 19  1  0  0  0  0
  8 20  1  0  0  0  0
  8 21  1  0  0  0  0
  9 12  1  0  0  0  0
  9 22  1  0  0  0  0
  9 23  1  0  0  0  0
 11 13  2  0  0  0  0
 12 24  1  0  0  0  0
 12 25  1  0  0  0  0
 12 26  1  0  0  0  0
 13 27  1  0  0  0  0
 14 28  1  0  0  0  0
 15 29  1  0  0  0  0
 15 30  1  0  0  0  0
 15 31  1  0  0  0  0
M  END
> <PUBCHEM_COMPOUND_CID>
5910

> <PUBCHEM_COMPOUND_CANONICALIZED>
1

> <PUBCHEM_CACTVS_COMPLEXITY>
245

> <PUBCHEM_CACTVS_HBOND_ACCEPTOR>
3

> <PUBCHEM_CACTVS_HBOND_DONOR>
0

> <PUBCHEM_CACTVS_ROTATABLE_BOND>
3

> <PUBCHEM_CACTVS_SUBSKEYS>
AAADceBzMAAAAAAAAAAAAAAAAAAAAWJAAAAAAAAAAAAAAAABgAAAHgAAAAAADQjhlgYvmBcMFACoART3bAAAgC0xEqABUAE4cAiAaBJAmQCWAAAMgAJAQCG62QMegAAAAAAAAAAAAAAAAAAAAAAAAAAAAA==

> <PUBCHEM_IUPAC_OPENEYE_NAME>
(3S,4R)-3-ethyl-4-[(3-methylimidazol-4-yl)methyl]tetrahydrofuran-2-one

> <PUBCHEM_IUPAC_CAS_NAME>
(3S,4R)-3-ethyl-4-[(3-methyl-4-imidazolyl)methyl]-2-oxolanone

> <PUBCHEM_IUPAC_NAME_MARKUP>
(3<I>S</I>,4<I>R</I>)-3-ethyl-4-[(3-methylimidazol-4-yl)methyl]oxolan-2-one

> <PUBCHEM_IUPAC_NAME>
(3S,4R)-3-ethyl-4-[(3-methylimidazol-4-yl)methyl]oxolan-2-one

> <PUBCHEM_IUPAC_SYSTEMATIC_NAME>
(3S,4R)-3-ethyl-4-[(3-methylimidazol-4-yl)methyl]oxolan-2-one

> <PUBCHEM_IUPAC_TRADITIONAL_NAME>
(3S,4R)-3-ethyl-4-[(3-methylimidazol-4-yl)methyl]tetrahydrofuran-2-one

> <PUBCHEM_IUPAC_INCHI>
InChI=1S/C11H16N2O2/c1-3-10-8(6-15-11(10)14)4-9-5-12-7-13(9)2/h5,7-8,10H,3-4,6H2,1-2H3/t8-,10-/m0/s1

> <PUBCHEM_IUPAC_INCHIKEY>
QCHFTSOMWOSFHM-WPRPVWTQSA-N

> <PUBCHEM_XLOGP3_AA>
1.1

> <PUBCHEM_EXACT_MASS>
208.121177757

> <PUBCHEM_MOLECULAR_FORMULA>
C11H16N2O2

> <PUBCHEM_MOLECULAR_WEIGHT>
208.26

> <PUBCHEM_OPENEYE_CAN_SMILES>
CCC1C(COC1=O)CC2=CN=CN2C

> <PUBCHEM_OPENEYE_ISO_SMILES>
CC[C@H]1[C@H](COC1=O)CC2=CN=CN2C

> <PUBCHEM_CACTVS_TPSA>
44.1

> <PUBCHEM_MONOISOTOPIC_WEIGHT>
208.121177757

> <PUBCHEM_TOTAL_CHARGE>
0

> <PUBCHEM_HEAVY_ATOM_COUNT>
15

> <PUBCHEM_ATOM_DEF_STEREO_COUNT>
2

> <PUBCHEM_ATOM_UDEF_STEREO_COUNT>
0

> <PUBCHEM_BOND_DEF_STEREO_COUNT>
0

> <PUBCHEM_BOND_UDEF_STEREO_COUNT>
0

> <PUBCHEM_ISOTOPIC_ATOM_COUNT>
0

> <PUBCHEM_COMPONENT_COUNT>
1

> <PUBCHEM_CACTVS_TAUTO_COUNT>
-1

> <PUBCHEM_COORDINATE_TYPE>
1
5
255

> <PUBCHEM_BONDANNOTATIONS>
11  13  8
3  11  8
3  14  8
4  13  8
4  14  8
5  7  5
6  9  5

$$$$
