9915886
  -OEChem-02142402142D

 72 75  0     1  0  0  0  0  0999 V2000
    4.7860    4.6077    0.0000 S   0  0  0  0  0  0  0  0  0  0  0  0
    5.1350   -1.9679    0.0000 O   0  0  0  0  0  0  0  0  0  0  0  0
    6.8671   -1.9679    0.0000 O   0  0  0  0  0  0  0  0  0  0  0  0
    5.1350   -4.9679    0.0000 O   0  0  0  0  0  0  0  0  0  0  0  0
    3.4030   -3.9679    0.0000 O   0  0  0  0  0  0  0  0  0  0  0  0
    6.8671   -3.9679    0.0000 O   0  0  0  0  0  0  0  0  0  0  0  0
    2.5369   -2.4679    0.0000 O   0  0  0  0  0  0  0  0  0  0  0  0
    5.1208    1.1112    0.0000 O   0  0  0  0  0  0  0  0  0  0  0  0
    5.0971   -0.9369    0.0000 O   0  0  0  0  0  0  0  0  0  0  0  0
    6.5062    5.2779    0.0000 O   0  0  0  0  0  0  0  0  0  0  0  0
   10.4256    2.7348    0.0000 O   0  0  0  0  0  0  0  0  0  0  0  0
    8.9290    3.6066    0.0000 N   0  0  0  0  0  0  0  0  0  0  0  0
    5.1350   -3.9679    0.0000 C   0  0  1  0  0  0  0  0  0  0  0  0
    4.2690   -3.4679    0.0000 C   0  0  1  0  0  0  0  0  0  0  0  0
    6.0010   -3.4679    0.0000 C   0  0  2  0  0  0  0  0  0  0  0  0
    4.2690   -2.4679    0.0000 C   0  0  1  0  0  0  0  0  0  0  0  0
    6.0010   -2.4679    0.0000 C   0  0  1  0  0  0  0  0  0  0  0  0
    8.4257    2.7425    0.0000 C   0  0  1  0  0  0  0  0  0  0  0  0
    8.9858    1.9141    0.0000 C   0  0  0  0  0  0  0  0  0  0  0  0
    8.6874    0.9597    0.0000 C   0  0  0  0  0  0  0  0  0  0  0  0
    7.7551    0.5980    0.0000 C   0  0  0  0  0  0  0  0  0  0  0  0
    3.4030   -1.9679    0.0000 C   0  0  0  0  0  0  0  0  0  0  0  0
    6.8910    1.1013    0.0000 C   0  0  0  0  0  0  0  0  0  0  0  0
    7.4288    2.8211    0.0000 C   0  0  0  0  0  0  0  0  0  0  0  0
    6.7458    2.0907    0.0000 C   0  0  0  0  0  0  0  0  0  0  0  0
    6.8671   -0.9679    0.0000 C   0  0  0  0  0  0  0  0  0  0  0  0
    7.7671   -0.4436    0.0000 C   0  0  0  0  0  0  0  0  0  0  0  0
    5.9790    0.5980    0.0000 C   0  0  0  0  0  0  0  0  0  0  0  0
    5.9670   -0.4436    0.0000 C   0  0  0  0  0  0  0  0  0  0  0  0
    7.2798    3.7905    0.0000 C   0  0  0  0  0  0  0  0  0  0  0  0
    5.7685    2.1743    0.0000 C   0  0  0  0  0  0  0  0  0  0  0  0
    6.4303    4.2808    0.0000 C   0  0  0  0  0  0  0  0  0  0  0  0
    5.2224    2.9890    0.0000 C   0  0  0  0  0  0  0  0  0  0  0  0
    9.9290    3.6028    0.0000 C   0  0  0  0  0  0  0  0  0  0  0  0
    5.5164    3.9247    0.0000 C   0  0  0  0  0  0  0  0  0  0  0  0
    4.2472    0.6247    0.0000 C   0  0  0  0  0  0  0  0  0  0  0  0
   10.4323    4.4669    0.0000 C   0  0  0  0  0  0  0  0  0  0  0  0
    4.2350   -0.4302    0.0000 C   0  0  0  0  0  0  0  0  0  0  0  0
    3.8293    4.3167    0.0000 C   0  0  0  0  0  0  0  0  0  0  0  0
    4.5981   -4.2779    0.0000 H   0  0  0  0  0  0  0  0  0  0  0  0
    4.2690   -4.0879    0.0000 H   0  0  0  0  0  0  0  0  0  0  0  0
    6.0010   -4.0879    0.0000 H   0  0  0  0  0  0  0  0  0  0  0  0
    4.2690   -1.8479    0.0000 H   0  0  0  0  0  0  0  0  0  0  0  0
    6.0010   -1.8479    0.0000 H   0  0  0  0  0  0  0  0  0  0  0  0
    9.0453    2.7633    0.0000 H   0  0  0  0  0  0  0  0  0  0  0  0
    9.5215    1.6021    0.0000 H   0  0  0  0  0  0  0  0  0  0  0  0
    9.4092    2.3670    0.0000 H   0  0  0  0  0  0  0  0  0  0  0  0
    8.7774    0.3463    0.0000 H   0  0  0  0  0  0  0  0  0  0  0  0
    9.3054    0.9110    0.0000 H   0  0  0  0  0  0  0  0  0  0  0  0
    3.8015   -1.4929    0.0000 H   0  0  0  0  0  0  0  0  0  0  0  0
    3.0044   -1.4929    0.0000 H   0  0  0  0  0  0  0  0  0  0  0  0
    8.3064   -0.7495    0.0000 H   0  0  0  0  0  0  0  0  0  0  0  0
    4.5981   -5.2779    0.0000 H   0  0  0  0  0  0  0  0  0  0  0  0
    3.4030   -4.5879    0.0000 H   0  0  0  0  0  0  0  0  0  0  0  0
    6.8671   -4.5879    0.0000 H   0  0  0  0  0  0  0  0  0  0  0  0
    8.6211    4.1448    0.0000 H   0  0  0  0  0  0  0  0  0  0  0  0
    7.7915    4.1406    0.0000 H   0  0  0  0  0  0  0  0  0  0  0  0
    5.4536    1.6403    0.0000 H   0  0  0  0  0  0  0  0  0  0  0  0
    2.0000   -2.1579    0.0000 H   0  0  0  0  0  0  0  0  0  0  0  0
    4.6088    2.9006    0.0000 H   0  0  0  0  0  0  0  0  0  0  0  0
    3.9455    1.1663    0.0000 H   0  0  0  0  0  0  0  0  0  0  0  0
    3.7056    0.3230    0.0000 H   0  0  0  0  0  0  0  0  0  0  0  0
    4.5489    0.0830    0.0000 H   0  0  0  0  0  0  0  0  0  0  0  0
   10.9681    4.1548    0.0000 H   0  0  0  0  0  0  0  0  0  0  0  0
   10.7444    5.0026    0.0000 H   0  0  0  0  0  0  0  0  0  0  0  0
    9.8966    4.7789    0.0000 H   0  0  0  0  0  0  0  0  0  0  0  0
    4.5491    0.1043    0.0000 H   0  0  0  0  0  0  0  0  0  0  0  0
    3.7005   -0.1161    0.0000 H   0  0  0  0  0  0  0  0  0  0  0  0
    3.9209   -0.9648    0.0000 H   0  0  0  0  0  0  0  0  0  0  0  0
    3.6488    4.9098    0.0000 H   0  0  0  0  0  0  0  0  0  0  0  0
    3.2361    4.1362    0.0000 H   0  0  0  0  0  0  0  0  0  0  0  0
    4.0098    3.7235    0.0000 H   0  0  0  0  0  0  0  0  0  0  0  0
  1 35  1  0  0  0  0
  1 39  1  0  0  0  0
  2 16  1  0  0  0  0
  2 17  1  0  0  0  0
 17  3  1  1  0  0  0
  3 26  1  0  0  0  0
 13  4  1  1  0  0  0
  4 53  1  0  0  0  0
 14  5  1  6  0  0  0
  5 54  1  0  0  0  0
 15  6  1  6  0  0  0
  6 55  1  0  0  0  0
  7 22  1  0  0  0  0
  7 59  1  0  0  0  0
  8 28  1  0  0  0  0
  8 36  1  0  0  0  0
  9 29  1  0  0  0  0
  9 38  1  0  0  0  0
 10 32  2  0  0  0  0
 11 34  2  0  0  0  0
 18 12  1  1  0  0  0
 12 34  1  0  0  0  0
 12 56  1  0  0  0  0
 13 14  1  0  0  0  0
 13 15  1  0  0  0  0
 13 40  1  0  0  0  0
 14 16  1  0  0  0  0
 14 41  1  0  0  0  0
 15 17  1  0  0  0  0
 15 42  1  0  0  0  0
 16 22  1  1  0  0  0
 16 43  1  0  0  0  0
 17 44  1  0  0  0  0
 18 19  1  0  0  0  0
 18 24  1  0  0  0  0
 18 45  1  0  0  0  0
 19 20  1  0  0  0  0
 19 46  1  0  0  0  0
 19 47  1  0  0  0  0
 20 21  1  0  0  0  0
 20 48  1  0  0  0  0
 20 49  1  0  0  0  0
 21 23  1  0  0  0  0
 21 27  2  0  0  0  0
 22 50  1  0  0  0  0
 22 51  1  0  0  0  0
 23 25  1  0  0  0  0
 23 28  2  0  0  0  0
 24 25  1  0  0  0  0
 24 30  2  0  0  0  0
 25 31  2  0  0  0  0
 26 27  1  0  0  0  0
 26 29  2  0  0  0  0
 27 52  1  0  0  0  0
 28 29  1  0  0  0  0
 30 32  1  0  0  0  0
 30 57  1  0  0  0  0
 31 33  1  0  0  0  0
 31 58  1  0  0  0  0
 32 35  1  0  0  0  0
 33 35  2  0  0  0  0
 33 60  1  0  0  0  0
 34 37  1  0  0  0  0
 36 61  1  0  0  0  0
 36 62  1  0  0  0  0
 36 63  1  0  0  0  0
 37 64  1  0  0  0  0
 37 65  1  0  0  0  0
 37 66  1  0  0  0  0
 38 67  1  0  0  0  0
 38 68  1  0  0  0  0
 38 69  1  0  0  0  0
 39 70  1  0  0  0  0
 39 71  1  0  0  0  0
 39 72  1  0  0  0  0
M  END
> <PUBCHEM_COMPOUND_CID>
9915886

> <PUBCHEM_COMPOUND_CANONICALIZED>
1

> <PUBCHEM_CACTVS_COMPLEXITY>
1010

> <PUBCHEM_CACTVS_HBOND_ACCEPTOR>
11

> <PUBCHEM_CACTVS_HBOND_DONOR>
5

> <PUBCHEM_CACTVS_ROTATABLE_BOND>
7

> <PUBCHEM_CACTVS_SUBSKEYS>
AAADcfB6PABAAAAAAAAAAAAAAAAAAAAAAAA0QAAABggAAAABAAAAHgQQCAAADDzx2AeyDoLABgiIAqFSEACCCAAgIBAAiIAOiMgdNyKksRqmeCKl1hWPqYfQ8P8OoAABCAAYQABAAAIQADCAAAAAAAAAAA==

> <PUBCHEM_IUPAC_OPENEYE_NAME>
N-[(7S)-1,2-dimethoxy-10-methylsulfanyl-9-oxo-3-[(2S,3R,4S,5S,6R)-3,4,5-trihydroxy-6-(hydroxymethyl)tetrahydropyran-2-yl]oxy-6,7-dihydro-5H-benzo[a]heptalen-7-yl]acetamide

> <PUBCHEM_IUPAC_CAS_NAME>
N-[(7S)-1,2-dimethoxy-10-(methylthio)-9-oxo-3-[[(2S,3R,4S,5S,6R)-3,4,5-trihydroxy-6-(hydroxymethyl)-2-oxanyl]oxy]-6,7-dihydro-5H-benzo[a]heptalen-7-yl]acetamide

> <PUBCHEM_IUPAC_NAME_MARKUP>
<I>N</I>-[(7<I>S</I>)-1,2-dimethoxy-10-methylsulfanyl-9-oxo-3-[(2<I>S</I>,3<I>R</I>,4<I>S</I>,5<I>S</I>,6<I>R</I>)-3,4,5-trihydroxy-6-(hydroxymethyl)oxan-2-yl]oxy-6,7-dihydro-5<I>H</I>-benzo[a]heptalen-7-yl]acetamide

> <PUBCHEM_IUPAC_NAME>
N-[(7S)-1,2-dimethoxy-10-methylsulfanyl-9-oxo-3-[(2S,3R,4S,5S,6R)-3,4,5-trihydroxy-6-(hydroxymethyl)oxan-2-yl]oxy-6,7-dihydro-5H-benzo[a]heptalen-7-yl]acetamide

> <PUBCHEM_IUPAC_SYSTEMATIC_NAME>
N-[(7S)-3-[(2S,3R,4S,5S,6R)-6-(hydroxymethyl)-3,4,5-tris(oxidanyl)oxan-2-yl]oxy-1,2-dimethoxy-10-methylsulfanyl-9-oxidanylidene-6,7-dihydro-5H-benzo[a]heptalen-7-yl]ethanamide

> <PUBCHEM_IUPAC_TRADITIONAL_NAME>
N-[(7S)-9-keto-1,2-dimethoxy-10-(methylthio)-3-[(2S,3R,4S,5S,6R)-3,4,5-trihydroxy-6-methylol-tetrahydropyran-2-yl]oxy-6,7-dihydro-5H-benzo[a]heptalen-7-yl]acetamide

> <PUBCHEM_IUPAC_INCHI>
InChI=1S/C27H33NO10S/c1-12(30)28-16-7-5-13-9-18(37-27-24(34)23(33)22(32)19(11-29)38-27)25(35-2)26(36-3)21(13)14-6-8-20(39-4)17(31)10-15(14)16/h6,8-10,16,19,22-24,27,29,32-34H,5,7,11H2,1-4H3,(H,28,30)/t16-,19+,22+,23-,24+,27+/m0/s1

> <PUBCHEM_IUPAC_INCHIKEY>
LEQAKWQJCITZNK-AXHKHJLKSA-N

> <PUBCHEM_XLOGP3>
-0.4

> <PUBCHEM_EXACT_MASS>
563.18251742

> <PUBCHEM_MOLECULAR_FORMULA>
C27H33NO10S

> <PUBCHEM_MOLECULAR_WEIGHT>
563.6

> <PUBCHEM_OPENEYE_CAN_SMILES>
CC(=O)NC1CCC2=CC(=C(C(=C2C3=CC=C(C(=O)C=C13)SC)OC)OC)OC4C(C(C(C(O4)CO)O)O)O

> <PUBCHEM_OPENEYE_ISO_SMILES>
CC(=O)N[C@H]1CCC2=CC(=C(C(=C2C3=CC=C(C(=O)C=C13)SC)OC)OC)O[C@H]4[C@@H]([C@H]([C@@H]([C@H](O4)CO)O)O)O

> <PUBCHEM_CACTVS_TPSA>
189

> <PUBCHEM_MONOISOTOPIC_WEIGHT>
563.18251742

> <PUBCHEM_TOTAL_CHARGE>
0

> <PUBCHEM_HEAVY_ATOM_COUNT>
39

> <PUBCHEM_ATOM_DEF_STEREO_COUNT>
6

> <PUBCHEM_ATOM_UDEF_STEREO_COUNT>
0

> <PUBCHEM_BOND_DEF_STEREO_COUNT>
0

> <PUBCHEM_BOND_UDEF_STEREO_COUNT>
0

> <PUBCHEM_ISOTOPIC_ATOM_COUNT>
0

> <PUBCHEM_COMPONENT_COUNT>
1

> <PUBCHEM_CACTVS_TAUTO_COUNT>
-1

> <PUBCHEM_COORDINATE_TYPE>
1
5
255

> <PUBCHEM_BONDANNOTATIONS>
18  12  5
16  22  5
21  23  8
21  27  8
23  28  8
24  25  8
24  30  8
25  31  8
26  27  8
26  29  8
28  29  8
17  3  5
30  32  8
31  33  8
32  35  8
33  35  8
13  4  5
14  5  6
15  6  6

$$$$
